*Heading
** Job name: Job-2 Model name: Model-1
** Generated by: Abaqus/CAE 2023
*Preprint, echo=NO, model=NO, history=NO, contact=NO
**
** PARTS
**
*Part, name=Block
*Node
      1,          0.5,           0.,  0.150000006
      2,  0.428571433,           0.,  0.150000006
      3,  0.357142866,           0.,  0.150000006
      4,  0.285714298,           0.,  0.150000006
      5,  0.214285716,           0.,  0.150000006
      6,  0.142857149,           0.,  0.150000006
      7, 0.0714285746,           0.,  0.150000006
      8,           0.,           0.,  0.150000006
      9,          0.5,           0.,  0.075000003
     10,  0.428571433,           0.,  0.075000003
     11,  0.357142866,           0.,  0.075000003
     12,  0.285714298,           0.,  0.075000003
     13,  0.214285716,           0.,  0.075000003
     14,  0.142857149,           0.,  0.075000003
     15, 0.0714285746,           0.,  0.075000003
     16,           0.,           0.,  0.075000003
     17,          0.5,           0.,           0.
     18,  0.428571433,           0.,           0.
     19,  0.357142866,           0.,           0.
     20,  0.285714298,           0.,           0.
** ... 172 like lines cut
*Element, type=C3D8R
 1,  25,  26,  34,  33,   1,   2,  10,   9
 2,  26,  27,  35,  34,   2,   3,  11,  10
 3,  27,  28,  36,  35,   3,   4,  12,  11
 4,  28,  29,  37,  36,   4,   5,  13,  12
 5,  29,  30,  38,  37,   5,   6,  14,  13
 6,  30,  31,  39,  38,   6,   7,  15,  14
 7,  31,  32,  40,  39,   7,   8,  16,  15
 8,  33,  34,  42,  41,   9,  10,  18,  17
 9,  34,  35,  43,  42,  10,  11,  19,  18
10,  35,  36,  44,  43,  11,  12,  20,  19
11,  36,  37,  45,  44,  12,  13,  21,  20
12,  37,  38,  46,  45,  13,  14,  22,  21
13,  38,  39,  47,  46,  14,  15,  23,  22
14,  39,  40,  48,  47,  15,  16,  24,  23
15,  49,  50,  58,  57,  25,  26,  34,  33
16,  50,  51,  59,  58,  26,  27,  35,  34
17,  51,  52,  60,  59,  27,  28,  36,  35
18,  52,  53,  61,  60,  28,  29,  37,  36
19,  53,  54,  62,  61,  29,  30,  38,  37
20,  54,  55,  63,  62,  30,  31,  39,  38
** ... 78 like lines cut
*Nset, nset=_PickedSet2, internal, generate
   1,  192,    1
*Elset, elset=_PickedSet2, internal, generate
  1,  98,   1
*Elset, elset=_bot_S5, internal
  8,  9, 10, 11, 12, 13, 14, 22, 23, 24, 25, 26, 27, 28, 36, 37
 38, 39, 40, 41, 42, 50, 51, 52, 53, 54, 55, 56, 64, 65, 66, 67
 68, 69, 70, 78, 79, 80, 81, 82, 83, 84, 92, 93, 94, 95, 96, 97
 98,
*Surface, type=ELEMENT, name=bot
_bot_S5, S5
** Section: BrickSection
*Solid Section, elset=_PickedSet2, material="Concrete C30/37"
,
*End Part
**  
*Part, name=DikeRigid
*End Part
**  
*Part, name=Wall
*End Part
**  
**
** ASSEMBLY
**
*Assembly, name=Assembly
**  
*Instance, name=Block-2-lin-1-8-lin-2-1-lin-lin-10-1-3, part=Block
19.42954101247, 2.33203866242936,         -2.8
19.42954101247, 2.33203866242936,         -2.8, 18.4548784888718, 2.49020462214031, -2.95816595971094, 91.4702773561219
*End Instance
**  
*Instance, name=Block-2-lin-1-8-lin-2-1-lin-lin-11-1-3, part=Block
20.3782243105366, 2.01581089646091,         -2.8
20.3782243105366, 2.01581089646091,         -2.8, 19.4035617869385, 2.17397685617185, -2.95816595971094, 91.4702773561219
*End Instance
**  
*Instance, name=Block-2-lin-1-4-lin-11-1, part=Block
19.9038826615033, 2.17392477944513,       -2.525
19.9038826615033, 2.17392477944513,       -2.525, 18.9292201379052, 2.33209073915608, -2.68316595971094, 91.4702773561219
*End Instance
**  
*Instance, name=Block-2-lin-1-8-lin-2-1-lin-lin-10-1-5, part=Block
19.42954101247, 2.33203866242936,         -1.7
19.42954101247, 2.33203866242936,         -1.7, 18.4548784888718, 2.49020462214031, -1.85816595971094, 91.4702773561219
*End Instance
**  
*Instance, name=Block-2-lin-1-8-lin-2-1-lin-lin-11-1-5, part=Block
20.3782243105366, 2.01581089646091,         -1.7
20.3782243105366, 2.01581089646091,         -1.7, 19.4035617869385, 2.17397685617185, -1.85816595971094, 91.4702773561219
*End Instance
**  
*Instance, name=Block-2-lin-1-6-lin-11-1, part=Block
19.9038826615033, 2.17392477944513,       -1.425
19.9038826615033, 2.17392477944513,       -1.425, 18.9292201379052, 2.33209073915608, -1.58316595971094, 91.4702773561219
*End Instance
**  
*Instance, name=Block-2-lin-1-3-lin-11-1, part=Block
19.9038826615033, 2.17392477944513,       -3.075
19.9038826615033, 2.17392477944513,       -3.075, 18.9292201379052, 2.33209073915608, -3.23316595971095, 91.4702773561219
*End Instance
**  
*Instance, name=Block-2-lin-1-8-lin-2-1-lin-lin-10-1-4, part=Block
19.42954101247, 2.33203866242936,        -2.25
19.42954101247, 2.33203866242936,        -2.25, 18.4548784888718, 2.49020462214031, -2.40816595971094, 91.4702773561219
*End Instance
**  
*Instance, name=Block-2-lin-1-8-lin-2-1-lin-lin-11-1-4, part=Block
20.3782243105366, 2.01581089646091,        -2.25
20.3782243105366, 2.01581089646091,        -2.25, 19.4035617869385, 2.17397685617185, -2.40816595971094, 91.4702773561219
*End Instance
**  
*Instance, name=Block-2-lin-1-5-lin-11-1, part=Block
19.9038826615033, 2.17392477944513,       -1.975
19.9038826615033, 2.17392477944513,       -1.975, 18.9292201379052, 2.33209073915608, -2.13316595971094, 91.4702773561219
*End Instance
**  
*Instance, name=DikeRigid-1, part=DikeRigid
   67.511216,   -16.666352, -2.50000000000001
   67.511216,   -16.666352, -2.50000000000001,    67.511216,   -15.666352, -2.50000000000001,         180.
*Surface, type=CYLINDER, name=Surf-2
START, 40.611216042617, 16.666351872149
 LINE, 46.611216042617, 18.666351872149
 LINE, 46.6586502075094, 18.524049377438
 LINE, 57.1586502075196, 22.0240493774414
 LINE, 57.111216042617, 22.166351872149
 LINE, 65.511216042617, 24.966351872149
 LINE, 67.511216042617, 24.966351872149
 LINE, 67.511216042617, 16.666351872149
 LINE, 40.611216042617, 16.666351872149
*End Instance
**  
*Instance, name=Wall-1, part=Wall
      -37.25,          3.5,         -0.5
      -37.25,          3.5,         -0.5, -38.2500000126881,          3.5,         -0.5, 89.9999992730282
*Surface, type=CYLINDER, name=Surf-Wall
START,        37.25,          4.5
 LINE,        37.25,           5.
 LINE,        63.75,           5.
 LINE,        63.75,          4.5
 LINE,        37.25,          4.5
*End Instance
**  
*Instance, name=Wall-1-lin-1-2, part=Wall
      -37.25,          3.5,           5.
      -37.25,          3.5,           5., -38.2500000126881,          3.5,           5., 89.9999992730282
*Surface, type=CYLINDER, name=Surf-Wall
START,        37.25,          4.5
 LINE,        37.25,           5.
 LINE,        63.75,           5.
 LINE,        63.75,          4.5
 LINE,        37.25,          4.5
*End Instance
**  
*Node
      1,           0.,           0.,           0.
*Node
      2,           0.,           0.,           1.
*Node
      3,           0.,           0.,           2.
*Nset, nset=_PickedSet485, internal
 1,
*Nset, nset=_PickedSet486, internal
 2,
*Nset, nset=_PickedSet487, internal
 3,
*Nset, nset=_PickedSet490, internal, instance=Block-2-lin-1-8-lin-2-1-lin-lin-10-1-3, generate
   1,  192,    1
*Nset, nset=_PickedSet490, internal, instance=Block-2-lin-1-8-lin-2-1-lin-lin-11-1-3, generate
   1,  192,    1
*Nset, nset=_PickedSet490, internal, instance=Block-2-lin-1-4-lin-11-1, generate
   1,  192,    1
*Nset, nset=_PickedSet490, internal, instance=Block-2-lin-1-8-lin-2-1-lin-lin-11-1-5, generate
   1,  192,    1
*Nset, nset=_PickedSet490, internal, instance=Block-2-lin-1-5-lin-11-1, generate
   1,  192,    1
*Nset, nset=_PickedSet490, internal, instance=Block-2-lin-1-8-lin-2-1-lin-lin-11-1-4, generate
   1,  192,    1
*Nset, nset=_PickedSet490, internal, instance=Block-2-lin-1-6-lin-11-1, generate
   1,  192,    1
*Nset, nset=_PickedSet490, internal, instance=Block-2-lin-1-3-lin-11-1, generate
   1,  192,    1
*Nset, nset=_PickedSet490, internal, instance=Block-2-lin-1-8-lin-2-1-lin-lin-10-1-5, generate
   1,  192,    1
*Nset, nset=_PickedSet490, internal, instance=Block-2-lin-1-8-lin-2-1-lin-lin-10-1-4, generate
   1,  192,    1
*Elset, elset=_PickedSet490, internal, instance=Block-2-lin-1-8-lin-2-1-lin-lin-10-1-3, generate
  1,  98,   1
*Elset, elset=_PickedSet490, internal, instance=Block-2-lin-1-8-lin-2-1-lin-lin-11-1-3, generate
  1,  98,   1
*Elset, elset=_PickedSet490, internal, instance=Block-2-lin-1-4-lin-11-1, generate
  1,  98,   1
*Elset, elset=_PickedSet490, internal, instance=Block-2-lin-1-8-lin-2-1-lin-lin-11-1-5, generate
  1,  98,   1
*Elset, elset=_PickedSet490, internal, instance=Block-2-lin-1-5-lin-11-1, generate
  1,  98,   1
*Elset, elset=_PickedSet490, internal, instance=Block-2-lin-1-8-lin-2-1-lin-lin-11-1-4, generate
  1,  98,   1
*Elset, elset=_PickedSet490, internal, instance=Block-2-lin-1-6-lin-11-1, generate
  1,  98,   1
*Elset, elset=_PickedSet490, internal, instance=Block-2-lin-1-3-lin-11-1, generate
  1,  98,   1
*Elset, elset=_PickedSet490, internal, instance=Block-2-lin-1-8-lin-2-1-lin-lin-10-1-5, generate
  1,  98,   1
*Elset, elset=_PickedSet490, internal, instance=Block-2-lin-1-8-lin-2-1-lin-lin-10-1-4, generate
  1,  98,   1
*Nset, nset=_PickedSet492, internal, generate
 1,  3,  1
*Nset, nset=_PickedSet498, internal, instance=Block-2-lin-1-5-lin-11-1
   1,   2,   3,   4,   5,   6,   7,   8,  25,  26,  27,  28,  29,  30,  31,  32
  49,  50,  51,  52,  53,  54,  55,  56,  73,  74,  75,  76,  77,  78,  79,  80
  97,  98,  99, 100, 101, 102, 103, 104, 121, 122, 123, 124, 125, 126, 127, 128
 145, 146, 147, 148, 149, 150, 151, 152, 169, 170, 171, 172, 173, 174, 175, 176
*Elset, elset=_PickedSet498, internal, instance=Block-2-lin-1-5-lin-11-1
  1,  2,  3,  4,  5,  6,  7, 15, 16, 17, 18, 19, 20, 21, 29, 30
 31, 32, 33, 34, 35, 43, 44, 45, 46, 47, 48, 49, 57, 58, 59, 60
 61, 62, 63, 71, 72, 73, 74, 75, 76, 77, 85, 86, 87, 88, 89, 90
 91,
*Elset, elset=_Bottoms_S5, internal, instance=Block-2-lin-1-8-lin-2-1-lin-lin-10-1-3
  8,  9, 10, 11, 12, 13, 14, 22, 23, 24, 25, 26, 27, 28, 36, 37
 38, 39, 40, 41, 42, 50, 51, 52, 53, 54, 55, 56, 64, 65, 66, 67
 68, 69, 70, 78, 79, 80, 81, 82, 83, 84, 92, 93, 94, 95, 96, 97
 98,
*Elset, elset=_Bottoms_S5, internal, instance=Block-2-lin-1-8-lin-2-1-lin-lin-11-1-3
  8,  9, 10, 11, 12, 13, 14, 22, 23, 24, 25, 26, 27, 28, 36, 37
 38, 39, 40, 41, 42, 50, 51, 52, 53, 54, 55, 56, 64, 65, 66, 67
 68, 69, 70, 78, 79, 80, 81, 82, 83, 84, 92, 93, 94, 95, 96, 97
 98,
*Elset, elset=_Bottoms_S5, internal, instance=Block-2-lin-1-4-lin-11-1
  8,  9, 10, 11, 12, 13, 14, 22, 23, 24, 25, 26, 27, 28, 36, 37
 38, 39, 40, 41, 42, 50, 51, 52, 53, 54, 55, 56, 64, 65, 66, 67
 68, 69, 70, 78, 79, 80, 81, 82, 83, 84, 92, 93, 94, 95, 96, 97
 98,
*Elset, elset=_Bottoms_S5, internal, instance=Block-2-lin-1-8-lin-2-1-lin-lin-11-1-5
  8,  9, 10, 11, 12, 13, 14, 22, 23, 24, 25, 26, 27, 28, 36, 37
 38, 39, 40, 41, 42, 50, 51, 52, 53, 54, 55, 56, 64, 65, 66, 67
 68, 69, 70, 78, 79, 80, 81, 82, 83, 84, 92, 93, 94, 95, 96, 97
 98,
*Elset, elset=_Bottoms_S5, internal, instance=Block-2-lin-1-5-lin-11-1
  8,  9, 10, 11, 12, 13, 14, 22, 23, 24, 25, 26, 27, 28, 36, 37
 38, 39, 40, 41, 42, 50, 51, 52, 53, 54, 55, 56, 64, 65, 66, 67
 68, 69, 70, 78, 79, 80, 81, 82, 83, 84, 92, 93, 94, 95, 96, 97
 98,
*Elset, elset=_Bottoms_S5, internal, instance=Block-2-lin-1-8-lin-2-1-lin-lin-11-1-4
  8,  9, 10, 11, 12, 13, 14, 22, 23, 24, 25, 26, 27, 28, 36, 37
 38, 39, 40, 41, 42, 50, 51, 52, 53, 54, 55, 56, 64, 65, 66, 67
 68, 69, 70, 78, 79, 80, 81, 82, 83, 84, 92, 93, 94, 95, 96, 97
 98,
*Elset, elset=_Bottoms_S5, internal, instance=Block-2-lin-1-6-lin-11-1
  8,  9, 10, 11, 12, 13, 14, 22, 23, 24, 25, 26, 27, 28, 36, 37
 38, 39, 40, 41, 42, 50, 51, 52, 53, 54, 55, 56, 64, 65, 66, 67
 68, 69, 70, 78, 79, 80, 81, 82, 83, 84, 92, 93, 94, 95, 96, 97
 98,
*Elset, elset=_Bottoms_S5, internal, instance=Block-2-lin-1-3-lin-11-1
  8,  9, 10, 11, 12, 13, 14, 22, 23, 24, 25, 26, 27, 28, 36, 37
 38, 39, 40, 41, 42, 50, 51, 52, 53, 54, 55, 56, 64, 65, 66, 67
 68, 69, 70, 78, 79, 80, 81, 82, 83, 84, 92, 93, 94, 95, 96, 97
 98,
*Elset, elset=_Bottoms_S5, internal, instance=Block-2-lin-1-8-lin-2-1-lin-lin-10-1-5
  8,  9, 10, 11, 12, 13, 14, 22, 23, 24, 25, 26, 27, 28, 36, 37
 38, 39, 40, 41, 42, 50, 51, 52, 53, 54, 55, 56, 64, 65, 66, 67
 68, 69, 70, 78, 79, 80, 81, 82, 83, 84, 92, 93, 94, 95, 96, 97
 98,
*Elset, elset=_Bottoms_S5, internal, instance=Block-2-lin-1-8-lin-2-1-lin-lin-10-1-4
  8,  9, 10, 11, 12, 13, 14, 22, 23, 24, 25, 26, 27, 28, 36, 37
 38, 39, 40, 41, 42, 50, 51, 52, 53, 54, 55, 56, 64, 65, 66, 67
 68, 69, 70, 78, 79, 80, 81, 82, 83, 84, 92, 93, 94, 95, 96, 97
 98,
*Surface, type=ELEMENT, name=Bottoms
_Bottoms_S5, S5
*Elset, elset=__PickedSurf493_S3, internal, instance=Block-2-lin-1-5-lin-11-1
  1,  2,  3,  4,  5,  6,  7, 15, 16, 17, 18, 19, 20, 21, 29, 30
 31, 32, 33, 34, 35, 43, 44, 45, 46, 47, 48, 49, 57, 58, 59, 60
 61, 62, 63, 71, 72, 73, 74, 75, 76, 77, 85, 86, 87, 88, 89, 90
 91,
*Surface, type=ELEMENT, name=_PickedSurf493, internal
__PickedSurf493_S3, S3
*Nset, nset="_T-Datum csys-2", internal
_PickedSet498, 
*Transform, nset="_T-Datum csys-2"
0.948683298066641, -0.316227765968456,           0., 0.316227765968456, 0.948683298066641,           0.
** Constraint: Constraint-1
*Rigid Body, ref node=_PickedSet485, analytical surface=DikeRigid-1.Surf-2
** Constraint: Constraint-2
*Rigid Body, ref node=_PickedSet486, analytical surface=Wall-1.Surf-Wall
** Constraint: Constraint-3
*Rigid Body, ref node=_PickedSet487, analytical surface=Wall-1-lin-1-2.Surf-Wall
*End Assembly
*Amplitude, name=pull_step, definition=SMOOTH STEP
             0.,              0.,             12.,              1.
** 
** MATERIALS
** 
*Material, name="Concrete C30/37"
*Density
2300.,
*Elastic
 3e+10, 0.18
** 
** INTERACTION PROPERTIES
** 
*Surface Interaction, name=BLOCK-FILTER
*Friction
 0.6,
*Surface Behavior, pressure-overclosure=HARD
*Surface Interaction, name=IntProp-1
*Friction
 0.85,
*Surface Behavior, pressure-overclosure=HARD
** 
** BOUNDARY CONDITIONS
** 
** Name: BC-1 Type: Displacement/Rotation
*Boundary
_PickedSet492, 1, 1
_PickedSet492, 2, 2
_PickedSet492, 3, 3
_PickedSet492, 4, 4
_PickedSet492, 5, 5
_PickedSet492, 6, 6
** 
** INTERACTIONS
** 
** Interaction: Int-2
*Contact, op=NEW
*Contact Inclusions, ALL EXTERIOR
** ----------------------------------------------------------------
** 
** STEP: Gravity
** 
*Step, name=Gravity, nlgeom=YES
*Dynamic, Explicit
, 1.
*Bulk Viscosity
0.06, 1.2
** 
** LOADS
** 
** Name: Gravity   Type: Gravity
*Dload
_PickedSet490, GRAV, 9.81, 0., -1., 0.
** 
** OUTPUT REQUESTS
** 
*Restart, write, number interval=1, time marks=NO
** 
** FIELD OUTPUT: F-Output-2
** 
*Output, field, variable=PRESELECT
** 
** HISTORY OUTPUT: H-Output-2
** 
*Output, history, variable=PRESELECT
*End Step
** ----------------------------------------------------------------
** 
** STEP: Loading
** 
*Step, name=Loading, nlgeom=YES
Gravity
*Dynamic, Explicit
, 12.
*Bulk Viscosity
0.06, 1.2
** 
** BOUNDARY CONDITIONS
** 
** Name: BC-2 Type: Displacement/Rotation
*Boundary, amplitude=pull_step
_PickedSet498, 2, 2, 0.5
** 
** OUTPUT REQUESTS
** 
*Restart, write, number interval=1, time marks=NO
** 
** FIELD OUTPUT: F-Output-1, F-Output-2
** 
*Output, field
*Node Output
A, RF, U, V
*Element Output, directions=YES
BF, EVF, LE, P, PE, PEEQ, PEEQVAVG, PEVAVG, S, SVAVG
*Contact Output
CFORCE, CSTRESS
** 
** HISTORY OUTPUT: H-Output-1, H-Output-2
** 
*Output, history, variable=PRESELECT
*End Step
