1

   Abaqus 2023                                  Date 27-mei-2025   Time 09:51:37
   For use by DELFT UNIVERSITY OF TECHNOLOGY under license from Dassault Systemes or its subsidiary.



                         The Abaqus Software is a product of:

                           Dassault Systemes SIMULIA Corp.
                           1301 Atwood Avenue, Suite 101W
                              Johnston, RI 02919, USA
 


                   The Abaqus Software is available only under license
                   from Dassault Systemes or its subsidiary and may be
                   used or reproduced only in accordance with the terms
                   of such license.
 
                          On machine TUD1006537 
                          you are authorized to run
                          Abaqus/Explicit until 30-Sep-2025

                          Your site id is: 200000000057591 


 
                    For assistance or any other information you may
                    obtain contact information for your local office
                    from the world wide web at:

                      https://www.3ds.com/products-services/simulia/services-support/

 
                * * * * * * * * * * * * * * * * * * * * * * * * * * * * * * 
                *                                                         * 
                *                   *****************                     * 
                *                   *  N O T I C E  *                     * 
                *                   *****************                     * 
                *                                                         * 
                *                                                         * 
                *                       Abaqus 2023                       * 
                *                                                         * 
                *       BUILD ID: 2023_03_20-20.15.03 RELr425 183417      * 
                *                                                         * 
                *                                                         * 
                *  Please make sure you are using                         * 
                *  release Abaqus 2023 manuals                            * 
                *  plus the notes accompanying this release.              * 
                *                                                         * 
                *                                                         * 
                *                                                         * 
                *                                                         * 
                *                                                         * 
                *   This program may not be used for commercial purposes  * 
                *           without payment of a commercial fee.          * 
                *                                                         * 
                * * * * * * * * * * * * * * * * * * * * * * * * * * * * * * 


 



     PROCESSING PART, INSTANCE, AND ASSEMBLY INFORMATION
   *******************************************************


     END PROCESSING PART, INSTANCE, AND ASSEMBLY INFORMATION
   ***********************************************************




     OPTIONS BEING PROCESSED
   ***************************


  *Heading
  *Node
  *Element, type=C3D8R
  *Nset, nset=ASSEMBLY_HALFBLOCK-1__PICKEDSET2
  *Elset, elset=ASSEMBLY_HALFBLOCK-1__BOT_S5
  *Elset, elset=ASSEMBLY_HALFBLOCK-1__PICKEDSET2
  *Node
  *Element, type=C3D8R
  *Nset, nset=ASSEMBLY_BLOCK-2__PICKEDSET2
  *Elset, elset=ASSEMBLY_BLOCK-2__BOT_S5
  *Elset, elset=ASSEMBLY_BLOCK-2__PICKEDSET2
  *Node
  *Element, type=C3D8R
  *Nset, nset=ASSEMBLY_BLOCK-2-LIN-1-2__PICKEDSET2
  *Elset, elset=ASSEMBLY_BLOCK-2-LIN-1-2__BOT_S5
  *Elset, elset=ASSEMBLY_BLOCK-2-LIN-1-2__PICKEDSET2
  *Node
  *Element, type=C3D8R
  *Nset, nset=ASSEMBLY_BLOCK-2-LIN-1-3__PICKEDSET2
  *Elset, elset=ASSEMBLY_BLOCK-2-LIN-1-3__BOT_S5
  *Elset, elset=ASSEMBLY_BLOCK-2-LIN-1-3__PICKEDSET2
  *Node
  *Element, type=C3D8R
  *Nset, nset=ASSEMBLY_BLOCK-2-LIN-1-4__PICKEDSET2
  *Elset, elset=ASSEMBLY_BLOCK-2-LIN-1-4__BOT_S5
  *Elset, elset=ASSEMBLY_BLOCK-2-LIN-1-4__PICKEDSET2
  *Node
  *Element, type=C3D8R
  *Nset, nset=ASSEMBLY_BLOCK-2-LIN-1-5__PICKEDSET2
  *Elset, elset=ASSEMBLY_BLOCK-2-LIN-1-5__BOT_S5
  *Elset, elset=ASSEMBLY_BLOCK-2-LIN-1-5__PICKEDSET2
  *Node
  *Element, type=C3D8R
  *Nset, nset=ASSEMBLY_BLOCK-2-LIN-1-6__PICKEDSET2
  *Elset, elset=ASSEMBLY_BLOCK-2-LIN-1-6__BOT_S5
  *Elset, elset=ASSEMBLY_BLOCK-2-LIN-1-6__PICKEDSET2
  *Node
  *Element, type=C3D8R
  *Nset, nset=ASSEMBLY_BLOCK-2-LIN-1-7__PICKEDSET2
  *Elset, elset=ASSEMBLY_BLOCK-2-LIN-1-7__BOT_S5
  *Elset, elset=ASSEMBLY_BLOCK-2-LIN-1-7__PICKEDSET2
  *Node
  *Element, type=C3D8R
  *Nset, nset=ASSEMBLY_BLOCK-2-LIN-1-8__PICKEDSET2
  *Elset, elset=ASSEMBLY_BLOCK-2-LIN-1-8__BOT_S5
  *Elset, elset=ASSEMBLY_BLOCK-2-LIN-1-8__PICKEDSET2
  *Node
  *Element, type=C3D8R
  *Nset, nset=ASSEMBLY_HALFBLOCK-1-LIN-1-2__PICKEDSET2
  *Elset, elset=ASSEMBLY_HALFBLOCK-1-LIN-1-2__BOT_S5
  *Elset, elset=ASSEMBLY_HALFBLOCK-1-LIN-1-2__PICKEDSET2
  *Node
  *Element, type=C3D8R
  *Nset, nset=ASSEMBLY_BLOCK-2-LIN-1-8-LIN-2-1__PICKEDSET2
  *Elset, elset=ASSEMBLY_BLOCK-2-LIN-1-8-LIN-2-1__BOT_S5
  *Elset, elset=ASSEMBLY_BLOCK-2-LIN-1-8-LIN-2-1__PICKEDSET2
  *Node
  *Element, type=C3D8R
  *Nset, nset=ASSEMBLY_BLOCK-2-LIN-1-8-LIN-2-1-LIN-1-2__PICKEDSET2
  *Elset, elset=ASSEMBLY_BLOCK-2-LIN-1-8-LIN-2-1-LIN-1-2__BOT_S5
  *Elset, elset=ASSEMBLY_BLOCK-2-LIN-1-8-LIN-2-1-LIN-1-2__PICKEDSET2
  *Node
  *Element, type=C3D8R
  *Nset, nset=ASSEMBLY_BLOCK-2-LIN-1-8-LIN-2-1-LIN-1-3__PICKEDSET2
  *Elset, elset=ASSEMBLY_BLOCK-2-LIN-1-8-LIN-2-1-LIN-1-3__BOT_S5
  *Elset, elset=ASSEMBLY_BLOCK-2-LIN-1-8-LIN-2-1-LIN-1-3__PICKEDSET2
  *Node
  *Element, type=C3D8R
  *Nset, nset=ASSEMBLY_BLOCK-2-LIN-1-8-LIN-2-1-LIN-1-4__PICKEDSET2
  *Elset, elset=ASSEMBLY_BLOCK-2-LIN-1-8-LIN-2-1-LIN-1-4__BOT_S5
  *Elset, elset=ASSEMBLY_BLOCK-2-LIN-1-8-LIN-2-1-LIN-1-4__PICKEDSET2
  *Node
  *Element, type=C3D8R
  *Nset, nset=ASSEMBLY_BLOCK-2-LIN-1-8-LIN-2-1-LIN-1-5__PICKEDSET2
  *Elset, elset=ASSEMBLY_BLOCK-2-LIN-1-8-LIN-2-1-LIN-1-5__BOT_S5
  *Elset, elset=ASSEMBLY_BLOCK-2-LIN-1-8-LIN-2-1-LIN-1-5__PICKEDSET2
  *Node
  *Element, type=C3D8R
  *Nset, nset=ASSEMBLY_BLOCK-2-LIN-1-8-LIN-2-1-LIN-1-6__PICKEDSET2
  *Elset, elset=ASSEMBLY_BLOCK-2-LIN-1-8-LIN-2-1-LIN-1-6__BOT_S5
  *Elset, elset=ASSEMBLY_BLOCK-2-LIN-1-8-LIN-2-1-LIN-1-6__PICKEDSET2
  *Node
  *Element, type=C3D8R
  *Nset, nset=ASSEMBLY_BLOCK-2-LIN-1-8-LIN-2-1-LIN-1-7__PICKEDSET2
  *Elset, elset=ASSEMBLY_BLOCK-2-LIN-1-8-LIN-2-1-LIN-1-7__BOT_S5
  *Elset, elset=ASSEMBLY_BLOCK-2-LIN-1-8-LIN-2-1-LIN-1-7__PICKEDSET2
  *Node
  *Element, type=C3D8R
  *Nset, nset=ASSEMBLY_BLOCK-2-LIN-1-8-LIN-2-1-LIN-1-8__PICKEDSET2
  *Elset, elset=ASSEMBLY_BLOCK-2-LIN-1-8-LIN-2-1-LIN-1-8__BOT_S5
  *Elset, elset=ASSEMBLY_BLOCK-2-LIN-1-8-LIN-2-1-LIN-1-8__PICKEDSET2
  *Node
  *Element, type=C3D8R
  *Nset, nset=ASSEMBLY_BLOCK-2-LIN-1-8-LIN-2-1-LIN-1-9__PICKEDSET2
  *Elset, elset=ASSEMBLY_BLOCK-2-LIN-1-8-LIN-2-1-LIN-1-9__BOT_S5
  *Elset, elset=ASSEMBLY_BLOCK-2-LIN-1-8-LIN-2-1-LIN-1-9__PICKEDSET2
  *Node
  *Element, type=C3D8R
  *Nset, nset=ASSEMBLY_HALFBLOCK-1-LIN-2-1__PICKEDSET2
  *Elset, elset=ASSEMBLY_HALFBLOCK-1-LIN-2-1__BOT_S5
  *Elset, elset=ASSEMBLY_HALFBLOCK-1-LIN-2-1__PICKEDSET2
  *Node
  *Element, type=C3D8R
  *Nset, nset=ASSEMBLY_HALFBLOCK-1-LIN-3-1__PICKEDSET2
  *Elset, elset=ASSEMBLY_HALFBLOCK-1-LIN-3-1__BOT_S5
  *Elset, elset=ASSEMBLY_HALFBLOCK-1-LIN-3-1__PICKEDSET2
  *Node
  *Element, type=C3D8R
  *Nset, nset=ASSEMBLY_HALFBLOCK-1-LIN-4-1__PICKEDSET2
  *Elset, elset=ASSEMBLY_HALFBLOCK-1-LIN-4-1__BOT_S5
  *Elset, elset=ASSEMBLY_HALFBLOCK-1-LIN-4-1__PICKEDSET2
  *Node
  *Element, type=C3D8R
  *Nset, nset=ASSEMBLY_HALFBLOCK-1-LIN-5-1__PICKEDSET2
  *Elset, elset=ASSEMBLY_HALFBLOCK-1-LIN-5-1__BOT_S5
  *Elset, elset=ASSEMBLY_HALFBLOCK-1-LIN-5-1__PICKEDSET2
  *Node
  *Element, type=C3D8R
  *Nset, nset=ASSEMBLY_HALFBLOCK-1-LIN-6-1__PICKEDSET2
  *Elset, elset=ASSEMBLY_HALFBLOCK-1-LIN-6-1__BOT_S5
  *Elset, elset=ASSEMBLY_HALFBLOCK-1-LIN-6-1__PICKEDSET2
  *Node
  *Element, type=C3D8R
  *Nset, nset=ASSEMBLY_HALFBLOCK-1-LIN-7-1__PICKEDSET2
  *Elset, elset=ASSEMBLY_HALFBLOCK-1-LIN-7-1__BOT_S5
  *Elset, elset=ASSEMBLY_HALFBLOCK-1-LIN-7-1__PICKEDSET2
  *Node
  *Element, type=C3D8R
  *Nset, nset=ASSEMBLY_HALFBLOCK-1-LIN-8-1__PICKEDSET2
  *Elset, elset=ASSEMBLY_HALFBLOCK-1-LIN-8-1__BOT_S5
  *Elset, elset=ASSEMBLY_HALFBLOCK-1-LIN-8-1__PICKEDSET2
  *Node
  *Element, type=C3D8R
  *Nset, nset=ASSEMBLY_HALFBLOCK-1-LIN-9-1__PICKEDSET2
  *Elset, elset=ASSEMBLY_HALFBLOCK-1-LIN-9-1__BOT_S5
  *Elset, elset=ASSEMBLY_HALFBLOCK-1-LIN-9-1__PICKEDSET2
  *Node
  *Element, type=C3D8R
  *Nset, nset=ASSEMBLY_HALFBLOCK-1-LIN-10-1__PICKEDSET2
  *Elset, elset=ASSEMBLY_HALFBLOCK-1-LIN-10-1__BOT_S5
  *Elset, elset=ASSEMBLY_HALFBLOCK-1-LIN-10-1__PICKEDSET2
  *Node
  *Element, type=C3D8R
  *Nset, nset=ASSEMBLY_HALFBLOCK-1-LIN-11-1__PICKEDSET2
  *Elset, elset=ASSEMBLY_HALFBLOCK-1-LIN-11-1__BOT_S5
  *Elset, elset=ASSEMBLY_HALFBLOCK-1-LIN-11-1__PICKEDSET2
  *Node
  *Element, type=C3D8R
  *Nset, nset=ASSEMBLY_BLOCK-2-LIN-2-1__PICKEDSET2
  *Elset, elset=ASSEMBLY_BLOCK-2-LIN-2-1__BOT_S5
  *Elset, elset=ASSEMBLY_BLOCK-2-LIN-2-1__PICKEDSET2
  *Node
  *Element, type=C3D8R
  *Nset, nset=ASSEMBLY_BLOCK-2-LIN-3-1__PICKEDSET2
  *Elset, elset=ASSEMBLY_BLOCK-2-LIN-3-1__BOT_S5
  *Elset, elset=ASSEMBLY_BLOCK-2-LIN-3-1__PICKEDSET2
  *Node
  *Element, type=C3D8R
  *Nset, nset=ASSEMBLY_BLOCK-2-LIN-4-1__PICKEDSET2
  *Elset, elset=ASSEMBLY_BLOCK-2-LIN-4-1__BOT_S5
  *Elset, elset=ASSEMBLY_BLOCK-2-LIN-4-1__PICKEDSET2
  *Node
  *Element, type=C3D8R
  *Nset, nset=ASSEMBLY_BLOCK-2-LIN-5-1__PICKEDSET2
  *Elset, elset=ASSEMBLY_BLOCK-2-LIN-5-1__BOT_S5
  *Elset, elset=ASSEMBLY_BLOCK-2-LIN-5-1__PICKEDSET2
  *Node
  *Element, type=C3D8R
  *Nset, nset=ASSEMBLY_BLOCK-2-LIN-6-1__PICKEDSET2
  *Elset, elset=ASSEMBLY_BLOCK-2-LIN-6-1__BOT_S5
  *Elset, elset=ASSEMBLY_BLOCK-2-LIN-6-1__PICKEDSET2
  *Node
  *Element, type=C3D8R
  *Nset, nset=ASSEMBLY_BLOCK-2-LIN-7-1__PICKEDSET2
  *Elset, elset=ASSEMBLY_BLOCK-2-LIN-7-1__BOT_S5
  *Elset, elset=ASSEMBLY_BLOCK-2-LIN-7-1__PICKEDSET2
  *Node
  *Element, type=C3D8R
  *Nset, nset=ASSEMBLY_BLOCK-2-LIN-8-1__PICKEDSET2
  *Elset, elset=ASSEMBLY_BLOCK-2-LIN-8-1__BOT_S5
  *Elset, elset=ASSEMBLY_BLOCK-2-LIN-8-1__PICKEDSET2
  *Node
  *Element, type=C3D8R
  *Nset, nset=ASSEMBLY_BLOCK-2-LIN-9-1__PICKEDSET2
  *Elset, elset=ASSEMBLY_BLOCK-2-LIN-9-1__BOT_S5
  *Elset, elset=ASSEMBLY_BLOCK-2-LIN-9-1__PICKEDSET2
  *Node
  *Element, type=C3D8R
  *Nset, nset=ASSEMBLY_BLOCK-2-LIN-10-1__PICKEDSET2
  *Elset, elset=ASSEMBLY_BLOCK-2-LIN-10-1__BOT_S5
  *Elset, elset=ASSEMBLY_BLOCK-2-LIN-10-1__PICKEDSET2
  *Node
  *Element, type=C3D8R
  *Nset, nset=ASSEMBLY_BLOCK-2-LIN-11-1__PICKEDSET2
  *Elset, elset=ASSEMBLY_BLOCK-2-LIN-11-1__BOT_S5
  *Elset, elset=ASSEMBLY_BLOCK-2-LIN-11-1__PICKEDSET2
  *Node
  *Element, type=C3D8R
  *Nset, nset=ASSEMBLY_BLOCK-2-LIN-1-8-LIN-2-1-LIN--LIN-2-1-1__PICKEDSET2
  *Elset, elset=ASSEMBLY_BLOCK-2-LIN-1-8-LIN-2-1-LIN--LIN-2-1-1__BOT_S5
  *Elset, elset=ASSEMBLY_BLOCK-2-LIN-1-8-LIN-2-1-LIN--LIN-2-1-1__PICKEDSET2
  *Node
  *Element, type=C3D8R
  *Nset, nset=ASSEMBLY_BLOCK-2-LIN-1-8-LIN-2-1-LIN--LIN-3-1-1__PICKEDSET2
  *Elset, elset=ASSEMBLY_BLOCK-2-LIN-1-8-LIN-2-1-LIN--LIN-3-1-1__BOT_S5
  *Elset, elset=ASSEMBLY_BLOCK-2-LIN-1-8-LIN-2-1-LIN--LIN-3-1-1__PICKEDSET2
  *Node
  *Element, type=C3D8R
  *Nset, nset=ASSEMBLY_BLOCK-2-LIN-1-8-LIN-2-1-LIN--LIN-4-1-1__PICKEDSET2
  *Elset, elset=ASSEMBLY_BLOCK-2-LIN-1-8-LIN-2-1-LIN--LIN-4-1-1__BOT_S5
  *Elset, elset=ASSEMBLY_BLOCK-2-LIN-1-8-LIN-2-1-LIN--LIN-4-1-1__PICKEDSET2
  *Node
  *Element, type=C3D8R
  *Nset, nset=ASSEMBLY_BLOCK-2-LIN-1-8-LIN-2-1-LIN--LIN-5-1-1__PICKEDSET2
  *Elset, elset=ASSEMBLY_BLOCK-2-LIN-1-8-LIN-2-1-LIN--LIN-5-1-1__BOT_S5
  *Elset, elset=ASSEMBLY_BLOCK-2-LIN-1-8-LIN-2-1-LIN--LIN-5-1-1__PICKEDSET2
  *Node
  *Element, type=C3D8R
  *Nset, nset=ASSEMBLY_BLOCK-2-LIN-1-8-LIN-2-1-LIN--LIN-6-1-1__PICKEDSET2
  *Elset, elset=ASSEMBLY_BLOCK-2-LIN-1-8-LIN-2-1-LIN--LIN-6-1-1__BOT_S5
  *Elset, elset=ASSEMBLY_BLOCK-2-LIN-1-8-LIN-2-1-LIN--LIN-6-1-1__PICKEDSET2
  *Node
  *Element, type=C3D8R
  *Nset, nset=ASSEMBLY_BLOCK-2-LIN-1-8-LIN-2-1-LIN--LIN-7-1-1__PICKEDSET2
  *Elset, elset=ASSEMBLY_BLOCK-2-LIN-1-8-LIN-2-1-LIN--LIN-7-1-1__BOT_S5
  *Elset, elset=ASSEMBLY_BLOCK-2-LIN-1-8-LIN-2-1-LIN--LIN-7-1-1__PICKEDSET2
  *Node
  *Element, type=C3D8R
  *Nset, nset=ASSEMBLY_BLOCK-2-LIN-1-8-LIN-2-1-LIN--LIN-8-1-1__PICKEDSET2
  *Elset, elset=ASSEMBLY_BLOCK-2-LIN-1-8-LIN-2-1-LIN--LIN-8-1-1__BOT_S5
  *Elset, elset=ASSEMBLY_BLOCK-2-LIN-1-8-LIN-2-1-LIN--LIN-8-1-1__PICKEDSET2
  *Node
  *Element, type=C3D8R
  *Nset, nset=ASSEMBLY_BLOCK-2-LIN-1-8-LIN-2-1-LIN--LIN-9-1-1__PICKEDSET2
  *Elset, elset=ASSEMBLY_BLOCK-2-LIN-1-8-LIN-2-1-LIN--LIN-9-1-1__BOT_S5
  *Elset, elset=ASSEMBLY_BLOCK-2-LIN-1-8-LIN-2-1-LIN--LIN-9-1-1__PICKEDSET2
  *Node
  *Element, type=C3D8R
  *Nset, nset=ASSEMBLY_BLOCK-2-LIN-1-8-LIN-2-1-LIN-LIN-10-1-1__PICKEDSET2
  *Elset, elset=ASSEMBLY_BLOCK-2-LIN-1-8-LIN-2-1-LIN-LIN-10-1-1__BOT_S5
  *Elset, elset=ASSEMBLY_BLOCK-2-LIN-1-8-LIN-2-1-LIN-LIN-10-1-1__PICKEDSET2
  *Node
  *Element, type=C3D8R
  *Nset, nset=ASSEMBLY_BLOCK-2-LIN-1-8-LIN-2-1-LIN-LIN-11-1-1__PICKEDSET2
  *Elset, elset=ASSEMBLY_BLOCK-2-LIN-1-8-LIN-2-1-LIN-LIN-11-1-1__BOT_S5
  *Elset, elset=ASSEMBLY_BLOCK-2-LIN-1-8-LIN-2-1-LIN-LIN-11-1-1__PICKEDSET2
  *Node
  *Element, type=C3D8R
  *Nset, nset=ASSEMBLY_BLOCK-2-LIN-1-2-LIN-2-1__PICKEDSET2
  *Elset, elset=ASSEMBLY_BLOCK-2-LIN-1-2-LIN-2-1__BOT_S5
  *Elset, elset=ASSEMBLY_BLOCK-2-LIN-1-2-LIN-2-1__PICKEDSET2

 ***NOTE: DUE TO EXCESSIVE REPORTING, THE ECHO OF THE *NODE OPTION IS BEING 
          SUPPRESSED.
  *Element, type=C3D8R
  *Nset, nset=ASSEMBLY_BLOCK-2-LIN-1-2-LIN-3-1__PICKEDSET2
  *Elset, elset=ASSEMBLY_BLOCK-2-LIN-1-2-LIN-3-1__BOT_S5
  *Elset, elset=ASSEMBLY_BLOCK-2-LIN-1-2-LIN-3-1__PICKEDSET2
  *Element, type=C3D8R
  *Nset, nset=ASSEMBLY_BLOCK-2-LIN-1-2-LIN-4-1__PICKEDSET2
  *Elset, elset=ASSEMBLY_BLOCK-2-LIN-1-2-LIN-4-1__BOT_S5
  *Elset, elset=ASSEMBLY_BLOCK-2-LIN-1-2-LIN-4-1__PICKEDSET2
  *Element, type=C3D8R
  *Nset, nset=ASSEMBLY_BLOCK-2-LIN-1-2-LIN-5-1__PICKEDSET2
  *Elset, elset=ASSEMBLY_BLOCK-2-LIN-1-2-LIN-5-1__BOT_S5
  *Elset, elset=ASSEMBLY_BLOCK-2-LIN-1-2-LIN-5-1__PICKEDSET2
  *Element, type=C3D8R
  *Nset, nset=ASSEMBLY_BLOCK-2-LIN-1-2-LIN-6-1__PICKEDSET2
  *Elset, elset=ASSEMBLY_BLOCK-2-LIN-1-2-LIN-6-1__BOT_S5
  *Elset, elset=ASSEMBLY_BLOCK-2-LIN-1-2-LIN-6-1__PICKEDSET2
  *Element, type=C3D8R
  *Nset, nset=ASSEMBLY_BLOCK-2-LIN-1-2-LIN-7-1__PICKEDSET2
  *Elset, elset=ASSEMBLY_BLOCK-2-LIN-1-2-LIN-7-1__BOT_S5
  *Elset, elset=ASSEMBLY_BLOCK-2-LIN-1-2-LIN-7-1__PICKEDSET2
  *Element, type=C3D8R
  *Nset, nset=ASSEMBLY_BLOCK-2-LIN-1-2-LIN-8-1__PICKEDSET2
  *Elset, elset=ASSEMBLY_BLOCK-2-LIN-1-2-LIN-8-1__BOT_S5
  *Elset, elset=ASSEMBLY_BLOCK-2-LIN-1-2-LIN-8-1__PICKEDSET2
  *Element, type=C3D8R
  *Nset, nset=ASSEMBLY_BLOCK-2-LIN-1-2-LIN-9-1__PICKEDSET2
  *Elset, elset=ASSEMBLY_BLOCK-2-LIN-1-2-LIN-9-1__BOT_S5
  *Elset, elset=ASSEMBLY_BLOCK-2-LIN-1-2-LIN-9-1__PICKEDSET2
  *Element, type=C3D8R
  *Nset, nset=ASSEMBLY_BLOCK-2-LIN-1-2-LIN-10-1__PICKEDSET2
  *Elset, elset=ASSEMBLY_BLOCK-2-LIN-1-2-LIN-10-1__BOT_S5
  *Elset, elset=ASSEMBLY_BLOCK-2-LIN-1-2-LIN-10-1__PICKEDSET2
  *Element, type=C3D8R
  *Nset, nset=ASSEMBLY_BLOCK-2-LIN-1-2-LIN-11-1__PICKEDSET2
  *Elset, elset=ASSEMBLY_BLOCK-2-LIN-1-2-LIN-11-1__BOT_S5
  *Elset, elset=ASSEMBLY_BLOCK-2-LIN-1-2-LIN-11-1__PICKEDSET2
  *Element, type=C3D8R
  *Nset, nset=ASSEMBLY_BLOCK-2-LIN-1-8-LIN-2-1-LIN--LIN-2-1-3__PICKEDSET2
  *Elset, elset=ASSEMBLY_BLOCK-2-LIN-1-8-LIN-2-1-LIN--LIN-2-1-3__BOT_S5
  *Elset, elset=ASSEMBLY_BLOCK-2-LIN-1-8-LIN-2-1-LIN--LIN-2-1-3__PICKEDSET2
  *Element, type=C3D8R
  *Nset, nset=ASSEMBLY_BLOCK-2-LIN-1-8-LIN-2-1-LIN--LIN-3-1-3__PICKEDSET2
  *Elset, elset=ASSEMBLY_BLOCK-2-LIN-1-8-LIN-2-1-LIN--LIN-3-1-3__BOT_S5
  *Elset, elset=ASSEMBLY_BLOCK-2-LIN-1-8-LIN-2-1-LIN--LIN-3-1-3__PICKEDSET2
  *Element, type=C3D8R
  *Nset, nset=ASSEMBLY_BLOCK-2-LIN-1-8-LIN-2-1-LIN--LIN-4-1-3__PICKEDSET2
  *Elset, elset=ASSEMBLY_BLOCK-2-LIN-1-8-LIN-2-1-LIN--LIN-4-1-3__BOT_S5
  *Elset, elset=ASSEMBLY_BLOCK-2-LIN-1-8-LIN-2-1-LIN--LIN-4-1-3__PICKEDSET2
  *Element, type=C3D8R
  *Nset, nset=ASSEMBLY_BLOCK-2-LIN-1-8-LIN-2-1-LIN--LIN-5-1-3__PICKEDSET2
  *Elset, elset=ASSEMBLY_BLOCK-2-LIN-1-8-LIN-2-1-LIN--LIN-5-1-3__BOT_S5
  *Elset, elset=ASSEMBLY_BLOCK-2-LIN-1-8-LIN-2-1-LIN--LIN-5-1-3__PICKEDSET2
  *Element, type=C3D8R
  *Nset, nset=ASSEMBLY_BLOCK-2-LIN-1-8-LIN-2-1-LIN--LIN-6-1-3__PICKEDSET2
  *Elset, elset=ASSEMBLY_BLOCK-2-LIN-1-8-LIN-2-1-LIN--LIN-6-1-3__BOT_S5
  *Elset, elset=ASSEMBLY_BLOCK-2-LIN-1-8-LIN-2-1-LIN--LIN-6-1-3__PICKEDSET2
  *Element, type=C3D8R
  *Nset, nset=ASSEMBLY_BLOCK-2-LIN-1-8-LIN-2-1-LIN--LIN-7-1-3__PICKEDSET2
  *Elset, elset=ASSEMBLY_BLOCK-2-LIN-1-8-LIN-2-1-LIN--LIN-7-1-3__BOT_S5
  *Elset, elset=ASSEMBLY_BLOCK-2-LIN-1-8-LIN-2-1-LIN--LIN-7-1-3__PICKEDSET2
  *Element, type=C3D8R
  *Nset, nset=ASSEMBLY_BLOCK-2-LIN-1-8-LIN-2-1-LIN--LIN-8-1-3__PICKEDSET2
  *Elset, elset=ASSEMBLY_BLOCK-2-LIN-1-8-LIN-2-1-LIN--LIN-8-1-3__BOT_S5
  *Elset, elset=ASSEMBLY_BLOCK-2-LIN-1-8-LIN-2-1-LIN--LIN-8-1-3__PICKEDSET2
  *Element, type=C3D8R
  *Nset, nset=ASSEMBLY_BLOCK-2-LIN-1-8-LIN-2-1-LIN--LIN-9-1-3__PICKEDSET2
  *Elset, elset=ASSEMBLY_BLOCK-2-LIN-1-8-LIN-2-1-LIN--LIN-9-1-3__BOT_S5
  *Elset, elset=ASSEMBLY_BLOCK-2-LIN-1-8-LIN-2-1-LIN--LIN-9-1-3__PICKEDSET2
  *Element, type=C3D8R
  *Nset, nset=ASSEMBLY_BLOCK-2-LIN-1-8-LIN-2-1-LIN-LIN-10-1-3__PICKEDSET2
  *Elset, elset=ASSEMBLY_BLOCK-2-LIN-1-8-LIN-2-1-LIN-LIN-10-1-3__BOT_S5
  *Elset, elset=ASSEMBLY_BLOCK-2-LIN-1-8-LIN-2-1-LIN-LIN-10-1-3__PICKEDSET2
  *Element, type=C3D8R
  *Nset, nset=ASSEMBLY_BLOCK-2-LIN-1-8-LIN-2-1-LIN-LIN-11-1-3__PICKEDSET2
  *Elset, elset=ASSEMBLY_BLOCK-2-LIN-1-8-LIN-2-1-LIN-LIN-11-1-3__BOT_S5
  *Elset, elset=ASSEMBLY_BLOCK-2-LIN-1-8-LIN-2-1-LIN-LIN-11-1-3__PICKEDSET2
  *Element, type=C3D8R
  *Nset, nset=ASSEMBLY_BLOCK-2-LIN-1-4-LIN-2-1__PICKEDSET2
  *Elset, elset=ASSEMBLY_BLOCK-2-LIN-1-4-LIN-2-1__BOT_S5
  *Elset, elset=ASSEMBLY_BLOCK-2-LIN-1-4-LIN-2-1__PICKEDSET2
  *Element, type=C3D8R
  *Nset, nset=ASSEMBLY_BLOCK-2-LIN-1-4-LIN-3-1__PICKEDSET2
  *Elset, elset=ASSEMBLY_BLOCK-2-LIN-1-4-LIN-3-1__BOT_S5
  *Elset, elset=ASSEMBLY_BLOCK-2-LIN-1-4-LIN-3-1__PICKEDSET2
  *Element, type=C3D8R
  *Nset, nset=ASSEMBLY_BLOCK-2-LIN-1-4-LIN-4-1__PICKEDSET2
  *Elset, elset=ASSEMBLY_BLOCK-2-LIN-1-4-LIN-4-1__BOT_S5
  *Elset, elset=ASSEMBLY_BLOCK-2-LIN-1-4-LIN-4-1__PICKEDSET2
  *Element, type=C3D8R
  *Nset, nset=ASSEMBLY_BLOCK-2-LIN-1-4-LIN-5-1__PICKEDSET2
  *Elset, elset=ASSEMBLY_BLOCK-2-LIN-1-4-LIN-5-1__BOT_S5
  *Elset, elset=ASSEMBLY_BLOCK-2-LIN-1-4-LIN-5-1__PICKEDSET2
  *Element, type=C3D8R
  *Nset, nset=ASSEMBLY_BLOCK-2-LIN-1-4-LIN-6-1__PICKEDSET2
  *Elset, elset=ASSEMBLY_BLOCK-2-LIN-1-4-LIN-6-1__BOT_S5
  *Elset, elset=ASSEMBLY_BLOCK-2-LIN-1-4-LIN-6-1__PICKEDSET2
  *Element, type=C3D8R
  *Nset, nset=ASSEMBLY_BLOCK-2-LIN-1-4-LIN-7-1__PICKEDSET2
  *Elset, elset=ASSEMBLY_BLOCK-2-LIN-1-4-LIN-7-1__BOT_S5
  *Elset, elset=ASSEMBLY_BLOCK-2-LIN-1-4-LIN-7-1__PICKEDSET2
  *Element, type=C3D8R
  *Nset, nset=ASSEMBLY_BLOCK-2-LIN-1-4-LIN-8-1__PICKEDSET2
  *Elset, elset=ASSEMBLY_BLOCK-2-LIN-1-4-LIN-8-1__BOT_S5
  *Elset, elset=ASSEMBLY_BLOCK-2-LIN-1-4-LIN-8-1__PICKEDSET2
  *Element, type=C3D8R
  *Nset, nset=ASSEMBLY_BLOCK-2-LIN-1-4-LIN-9-1__PICKEDSET2
  *Elset, elset=ASSEMBLY_BLOCK-2-LIN-1-4-LIN-9-1__BOT_S5
  *Elset, elset=ASSEMBLY_BLOCK-2-LIN-1-4-LIN-9-1__PICKEDSET2
  *Element, type=C3D8R
  *Nset, nset=ASSEMBLY_BLOCK-2-LIN-1-4-LIN-10-1__PICKEDSET2
  *Elset, elset=ASSEMBLY_BLOCK-2-LIN-1-4-LIN-10-1__BOT_S5
  *Elset, elset=ASSEMBLY_BLOCK-2-LIN-1-4-LIN-10-1__PICKEDSET2
  *Element, type=C3D8R
  *Nset, nset=ASSEMBLY_BLOCK-2-LIN-1-4-LIN-11-1__PICKEDSET2
  *Elset, elset=ASSEMBLY_BLOCK-2-LIN-1-4-LIN-11-1__BOT_S5
  *Elset, elset=ASSEMBLY_BLOCK-2-LIN-1-4-LIN-11-1__PICKEDSET2
  *Element, type=C3D8R
  *Nset, nset=ASSEMBLY_BLOCK-2-LIN-1-8-LIN-2-1-LIN--LIN-2-1-5__PICKEDSET2
  *Elset, elset=ASSEMBLY_BLOCK-2-LIN-1-8-LIN-2-1-LIN--LIN-2-1-5__BOT_S5
  *Elset, elset=ASSEMBLY_BLOCK-2-LIN-1-8-LIN-2-1-LIN--LIN-2-1-5__PICKEDSET2
  *Element, type=C3D8R
  *Nset, nset=ASSEMBLY_BLOCK-2-LIN-1-8-LIN-2-1-LIN--LIN-3-1-5__PICKEDSET2
  *Elset, elset=ASSEMBLY_BLOCK-2-LIN-1-8-LIN-2-1-LIN--LIN-3-1-5__BOT_S5
  *Elset, elset=ASSEMBLY_BLOCK-2-LIN-1-8-LIN-2-1-LIN--LIN-3-1-5__PICKEDSET2
  *Element, type=C3D8R
  *Nset, nset=ASSEMBLY_BLOCK-2-LIN-1-8-LIN-2-1-LIN--LIN-4-1-5__PICKEDSET2
  *Elset, elset=ASSEMBLY_BLOCK-2-LIN-1-8-LIN-2-1-LIN--LIN-4-1-5__BOT_S5
  *Elset, elset=ASSEMBLY_BLOCK-2-LIN-1-8-LIN-2-1-LIN--LIN-4-1-5__PICKEDSET2
  *Element, type=C3D8R
  *Nset, nset=ASSEMBLY_BLOCK-2-LIN-1-8-LIN-2-1-LIN--LIN-5-1-5__PICKEDSET2
  *Elset, elset=ASSEMBLY_BLOCK-2-LIN-1-8-LIN-2-1-LIN--LIN-5-1-5__BOT_S5
  *Elset, elset=ASSEMBLY_BLOCK-2-LIN-1-8-LIN-2-1-LIN--LIN-5-1-5__PICKEDSET2
  *Element, type=C3D8R
  *Nset, nset=ASSEMBLY_BLOCK-2-LIN-1-8-LIN-2-1-LIN--LIN-6-1-5__PICKEDSET2
  *Elset, elset=ASSEMBLY_BLOCK-2-LIN-1-8-LIN-2-1-LIN--LIN-6-1-5__BOT_S5
  *Elset, elset=ASSEMBLY_BLOCK-2-LIN-1-8-LIN-2-1-LIN--LIN-6-1-5__PICKEDSET2
  *Element, type=C3D8R
  *Nset, nset=ASSEMBLY_BLOCK-2-LIN-1-8-LIN-2-1-LIN--LIN-7-1-5__PICKEDSET2
  *Elset, elset=ASSEMBLY_BLOCK-2-LIN-1-8-LIN-2-1-LIN--LIN-7-1-5__BOT_S5
  *Elset, elset=ASSEMBLY_BLOCK-2-LIN-1-8-LIN-2-1-LIN--LIN-7-1-5__PICKEDSET2
  *Element, type=C3D8R
  *Nset, nset=ASSEMBLY_BLOCK-2-LIN-1-8-LIN-2-1-LIN--LIN-8-1-5__PICKEDSET2
  *Elset, elset=ASSEMBLY_BLOCK-2-LIN-1-8-LIN-2-1-LIN--LIN-8-1-5__BOT_S5
  *Elset, elset=ASSEMBLY_BLOCK-2-LIN-1-8-LIN-2-1-LIN--LIN-8-1-5__PICKEDSET2
  *Element, type=C3D8R
  *Nset, nset=ASSEMBLY_BLOCK-2-LIN-1-8-LIN-2-1-LIN--LIN-9-1-5__PICKEDSET2
  *Elset, elset=ASSEMBLY_BLOCK-2-LIN-1-8-LIN-2-1-LIN--LIN-9-1-5__BOT_S5
  *Elset, elset=ASSEMBLY_BLOCK-2-LIN-1-8-LIN-2-1-LIN--LIN-9-1-5__PICKEDSET2
  *Element, type=C3D8R
  *Nset, nset=ASSEMBLY_BLOCK-2-LIN-1-8-LIN-2-1-LIN-LIN-10-1-5__PICKEDSET2
  *Elset, elset=ASSEMBLY_BLOCK-2-LIN-1-8-LIN-2-1-LIN-LIN-10-1-5__BOT_S5
  *Elset, elset=ASSEMBLY_BLOCK-2-LIN-1-8-LIN-2-1-LIN-LIN-10-1-5__PICKEDSET2
  *Element, type=C3D8R
  *Nset, nset=ASSEMBLY_BLOCK-2-LIN-1-8-LIN-2-1-LIN-LIN-11-1-5__PICKEDSET2
  *Elset, elset=ASSEMBLY_BLOCK-2-LIN-1-8-LIN-2-1-LIN-LIN-11-1-5__BOT_S5
  *Elset, elset=ASSEMBLY_BLOCK-2-LIN-1-8-LIN-2-1-LIN-LIN-11-1-5__PICKEDSET2
  *Element, type=C3D8R
  *Nset, nset=ASSEMBLY_BLOCK-2-LIN-1-6-LIN-2-1__PICKEDSET2
  *Elset, elset=ASSEMBLY_BLOCK-2-LIN-1-6-LIN-2-1__BOT_S5
  *Elset, elset=ASSEMBLY_BLOCK-2-LIN-1-6-LIN-2-1__PICKEDSET2
  *Element, type=C3D8R
  *Nset, nset=ASSEMBLY_BLOCK-2-LIN-1-6-LIN-3-1__PICKEDSET2
  *Elset, elset=ASSEMBLY_BLOCK-2-LIN-1-6-LIN-3-1__BOT_S5
  *Elset, elset=ASSEMBLY_BLOCK-2-LIN-1-6-LIN-3-1__PICKEDSET2
  *Element, type=C3D8R
  *Nset, nset=ASSEMBLY_BLOCK-2-LIN-1-6-LIN-4-1__PICKEDSET2
  *Elset, elset=ASSEMBLY_BLOCK-2-LIN-1-6-LIN-4-1__BOT_S5
  *Elset, elset=ASSEMBLY_BLOCK-2-LIN-1-6-LIN-4-1__PICKEDSET2
  *Element, type=C3D8R
  *Nset, nset=ASSEMBLY_BLOCK-2-LIN-1-6-LIN-5-1__PICKEDSET2
  *Elset, elset=ASSEMBLY_BLOCK-2-LIN-1-6-LIN-5-1__BOT_S5
  *Elset, elset=ASSEMBLY_BLOCK-2-LIN-1-6-LIN-5-1__PICKEDSET2
  *Element, type=C3D8R
  *Nset, nset=ASSEMBLY_BLOCK-2-LIN-1-6-LIN-6-1__PICKEDSET2
  *Elset, elset=ASSEMBLY_BLOCK-2-LIN-1-6-LIN-6-1__BOT_S5
  *Elset, elset=ASSEMBLY_BLOCK-2-LIN-1-6-LIN-6-1__PICKEDSET2
  *Element, type=C3D8R
  *Nset, nset=ASSEMBLY_BLOCK-2-LIN-1-6-LIN-7-1__PICKEDSET2
  *Elset, elset=ASSEMBLY_BLOCK-2-LIN-1-6-LIN-7-1__BOT_S5
  *Elset, elset=ASSEMBLY_BLOCK-2-LIN-1-6-LIN-7-1__PICKEDSET2
  *Element, type=C3D8R
  *Nset, nset=ASSEMBLY_BLOCK-2-LIN-1-6-LIN-8-1__PICKEDSET2
  *Elset, elset=ASSEMBLY_BLOCK-2-LIN-1-6-LIN-8-1__BOT_S5
  *Elset, elset=ASSEMBLY_BLOCK-2-LIN-1-6-LIN-8-1__PICKEDSET2
  *Element, type=C3D8R
  *Nset, nset=ASSEMBLY_BLOCK-2-LIN-1-6-LIN-9-1__PICKEDSET2
  *Elset, elset=ASSEMBLY_BLOCK-2-LIN-1-6-LIN-9-1__BOT_S5
  *Elset, elset=ASSEMBLY_BLOCK-2-LIN-1-6-LIN-9-1__PICKEDSET2
  *Element, type=C3D8R
  *Nset, nset=ASSEMBLY_BLOCK-2-LIN-1-6-LIN-10-1__PICKEDSET2
  *Elset, elset=ASSEMBLY_BLOCK-2-LIN-1-6-LIN-10-1__BOT_S5
  *Elset, elset=ASSEMBLY_BLOCK-2-LIN-1-6-LIN-10-1__PICKEDSET2
  *Element, type=C3D8R
  *Nset, nset=ASSEMBLY_BLOCK-2-LIN-1-6-LIN-11-1__PICKEDSET2
  *Elset, elset=ASSEMBLY_BLOCK-2-LIN-1-6-LIN-11-1__BOT_S5
  *Elset, elset=ASSEMBLY_BLOCK-2-LIN-1-6-LIN-11-1__PICKEDSET2
  *Element, type=C3D8R
  *Nset, nset=ASSEMBLY_BLOCK-2-LIN-1-8-LIN-2-1-LIN--LIN-2-1-7__PICKEDSET2
  *Elset, elset=ASSEMBLY_BLOCK-2-LIN-1-8-LIN-2-1-LIN--LIN-2-1-7__BOT_S5
  *Elset, elset=ASSEMBLY_BLOCK-2-LIN-1-8-LIN-2-1-LIN--LIN-2-1-7__PICKEDSET2
  *Element, type=C3D8R
  *Nset, nset=ASSEMBLY_BLOCK-2-LIN-1-8-LIN-2-1-LIN--LIN-3-1-7__PICKEDSET2
  *Elset, elset=ASSEMBLY_BLOCK-2-LIN-1-8-LIN-2-1-LIN--LIN-3-1-7__BOT_S5
  *Elset, elset=ASSEMBLY_BLOCK-2-LIN-1-8-LIN-2-1-LIN--LIN-3-1-7__PICKEDSET2
  *Element, type=C3D8R
  *Nset, nset=ASSEMBLY_BLOCK-2-LIN-1-8-LIN-2-1-LIN--LIN-4-1-7__PICKEDSET2
  *Elset, elset=ASSEMBLY_BLOCK-2-LIN-1-8-LIN-2-1-LIN--LIN-4-1-7__BOT_S5
  *Elset, elset=ASSEMBLY_BLOCK-2-LIN-1-8-LIN-2-1-LIN--LIN-4-1-7__PICKEDSET2
  *Element, type=C3D8R
  *Nset, nset=ASSEMBLY_BLOCK-2-LIN-1-8-LIN-2-1-LIN--LIN-5-1-7__PICKEDSET2
  *Elset, elset=ASSEMBLY_BLOCK-2-LIN-1-8-LIN-2-1-LIN--LIN-5-1-7__BOT_S5
  *Elset, elset=ASSEMBLY_BLOCK-2-LIN-1-8-LIN-2-1-LIN--LIN-5-1-7__PICKEDSET2
  *Element, type=C3D8R
  *Nset, nset=ASSEMBLY_BLOCK-2-LIN-1-8-LIN-2-1-LIN--LIN-6-1-7__PICKEDSET2
  *Elset, elset=ASSEMBLY_BLOCK-2-LIN-1-8-LIN-2-1-LIN--LIN-6-1-7__BOT_S5
  *Elset, elset=ASSEMBLY_BLOCK-2-LIN-1-8-LIN-2-1-LIN--LIN-6-1-7__PICKEDSET2
  *Element, type=C3D8R
  *Nset, nset=ASSEMBLY_BLOCK-2-LIN-1-8-LIN-2-1-LIN--LIN-7-1-7__PICKEDSET2
  *Elset, elset=ASSEMBLY_BLOCK-2-LIN-1-8-LIN-2-1-LIN--LIN-7-1-7__BOT_S5
  *Elset, elset=ASSEMBLY_BLOCK-2-LIN-1-8-LIN-2-1-LIN--LIN-7-1-7__PICKEDSET2
  *Element, type=C3D8R
  *Nset, nset=ASSEMBLY_BLOCK-2-LIN-1-8-LIN-2-1-LIN--LIN-8-1-7__PICKEDSET2
  *Elset, elset=ASSEMBLY_BLOCK-2-LIN-1-8-LIN-2-1-LIN--LIN-8-1-7__BOT_S5
  *Elset, elset=ASSEMBLY_BLOCK-2-LIN-1-8-LIN-2-1-LIN--LIN-8-1-7__PICKEDSET2
  *Element, type=C3D8R
  *Nset, nset=ASSEMBLY_BLOCK-2-LIN-1-8-LIN-2-1-LIN--LIN-9-1-7__PICKEDSET2
  *Elset, elset=ASSEMBLY_BLOCK-2-LIN-1-8-LIN-2-1-LIN--LIN-9-1-7__BOT_S5
  *Elset, elset=ASSEMBLY_BLOCK-2-LIN-1-8-LIN-2-1-LIN--LIN-9-1-7__PICKEDSET2
  *Element, type=C3D8R
  *Nset, nset=ASSEMBLY_BLOCK-2-LIN-1-8-LIN-2-1-LIN-LIN-10-1-7__PICKEDSET2
  *Elset, elset=ASSEMBLY_BLOCK-2-LIN-1-8-LIN-2-1-LIN-LIN-10-1-7__BOT_S5
  *Elset, elset=ASSEMBLY_BLOCK-2-LIN-1-8-LIN-2-1-LIN-LIN-10-1-7__PICKEDSET2
  *Element, type=C3D8R
  *Nset, nset=ASSEMBLY_BLOCK-2-LIN-1-8-LIN-2-1-LIN-LIN-11-1-7__PICKEDSET2
  *Elset, elset=ASSEMBLY_BLOCK-2-LIN-1-8-LIN-2-1-LIN-LIN-11-1-7__BOT_S5
  *Elset, elset=ASSEMBLY_BLOCK-2-LIN-1-8-LIN-2-1-LIN-LIN-11-1-7__PICKEDSET2
  *Element, type=C3D8R
  *Nset, nset=ASSEMBLY_BLOCK-2-LIN-1-8-LIN-2-1-1__PICKEDSET2
  *Elset, elset=ASSEMBLY_BLOCK-2-LIN-1-8-LIN-2-1-1__BOT_S5
  *Elset, elset=ASSEMBLY_BLOCK-2-LIN-1-8-LIN-2-1-1__PICKEDSET2
  *Element, type=C3D8R
  *Nset, nset=ASSEMBLY_BLOCK-2-LIN-1-8-LIN-3-1__PICKEDSET2
  *Elset, elset=ASSEMBLY_BLOCK-2-LIN-1-8-LIN-3-1__BOT_S5
  *Elset, elset=ASSEMBLY_BLOCK-2-LIN-1-8-LIN-3-1__PICKEDSET2
  *Element, type=C3D8R
  *Nset, nset=ASSEMBLY_BLOCK-2-LIN-1-8-LIN-4-1__PICKEDSET2
  *Elset, elset=ASSEMBLY_BLOCK-2-LIN-1-8-LIN-4-1__BOT_S5
  *Elset, elset=ASSEMBLY_BLOCK-2-LIN-1-8-LIN-4-1__PICKEDSET2
  *Element, type=C3D8R
  *Nset, nset=ASSEMBLY_BLOCK-2-LIN-1-8-LIN-5-1__PICKEDSET2
  *Elset, elset=ASSEMBLY_BLOCK-2-LIN-1-8-LIN-5-1__BOT_S5
  *Elset, elset=ASSEMBLY_BLOCK-2-LIN-1-8-LIN-5-1__PICKEDSET2
  *Element, type=C3D8R
  *Nset, nset=ASSEMBLY_BLOCK-2-LIN-1-8-LIN-6-1__PICKEDSET2
  *Elset, elset=ASSEMBLY_BLOCK-2-LIN-1-8-LIN-6-1__BOT_S5
  *Elset, elset=ASSEMBLY_BLOCK-2-LIN-1-8-LIN-6-1__PICKEDSET2
  *Element, type=C3D8R
  *Nset, nset=ASSEMBLY_BLOCK-2-LIN-1-8-LIN-7-1__PICKEDSET2
  *Elset, elset=ASSEMBLY_BLOCK-2-LIN-1-8-LIN-7-1__BOT_S5
  *Elset, elset=ASSEMBLY_BLOCK-2-LIN-1-8-LIN-7-1__PICKEDSET2
  *Element, type=C3D8R
  *Nset, nset=ASSEMBLY_BLOCK-2-LIN-1-8-LIN-8-1__PICKEDSET2
  *Elset, elset=ASSEMBLY_BLOCK-2-LIN-1-8-LIN-8-1__BOT_S5
  *Elset, elset=ASSEMBLY_BLOCK-2-LIN-1-8-LIN-8-1__PICKEDSET2
  *Element, type=C3D8R
  *Nset, nset=ASSEMBLY_BLOCK-2-LIN-1-8-LIN-9-1__PICKEDSET2
  *Elset, elset=ASSEMBLY_BLOCK-2-LIN-1-8-LIN-9-1__BOT_S5
  *Elset, elset=ASSEMBLY_BLOCK-2-LIN-1-8-LIN-9-1__PICKEDSET2
  *Element, type=C3D8R
  *Nset, nset=ASSEMBLY_BLOCK-2-LIN-1-8-LIN-10-1__PICKEDSET2
  *Elset, elset=ASSEMBLY_BLOCK-2-LIN-1-8-LIN-10-1__BOT_S5
  *Elset, elset=ASSEMBLY_BLOCK-2-LIN-1-8-LIN-10-1__PICKEDSET2
  *Element, type=C3D8R
  *Nset, nset=ASSEMBLY_BLOCK-2-LIN-1-8-LIN-11-1__PICKEDSET2
  *Elset, elset=ASSEMBLY_BLOCK-2-LIN-1-8-LIN-11-1__BOT_S5
  *Elset, elset=ASSEMBLY_BLOCK-2-LIN-1-8-LIN-11-1__PICKEDSET2
  *Element, type=C3D8R
  *Nset, nset=ASSEMBLY_HALFBLOCK-1-LIN-1-2-LIN-2-1__PICKEDSET2
  *Elset, elset=ASSEMBLY_HALFBLOCK-1-LIN-1-2-LIN-2-1__BOT_S5
  *Elset, elset=ASSEMBLY_HALFBLOCK-1-LIN-1-2-LIN-2-1__PICKEDSET2
  *Element, type=C3D8R
  *Nset, nset=ASSEMBLY_HALFBLOCK-1-LIN-1-2-LIN-3-1__PICKEDSET2
  *Elset, elset=ASSEMBLY_HALFBLOCK-1-LIN-1-2-LIN-3-1__BOT_S5
  *Elset, elset=ASSEMBLY_HALFBLOCK-1-LIN-1-2-LIN-3-1__PICKEDSET2
  *Element, type=C3D8R
  *Nset, nset=ASSEMBLY_HALFBLOCK-1-LIN-1-2-LIN-4-1__PICKEDSET2
  *Elset, elset=ASSEMBLY_HALFBLOCK-1-LIN-1-2-LIN-4-1__BOT_S5
  *Elset, elset=ASSEMBLY_HALFBLOCK-1-LIN-1-2-LIN-4-1__PICKEDSET2
  *Element, type=C3D8R
  *Nset, nset=ASSEMBLY_HALFBLOCK-1-LIN-1-2-LIN-5-1__PICKEDSET2
  *Elset, elset=ASSEMBLY_HALFBLOCK-1-LIN-1-2-LIN-5-1__BOT_S5
  *Elset, elset=ASSEMBLY_HALFBLOCK-1-LIN-1-2-LIN-5-1__PICKEDSET2
  *Element, type=C3D8R
  *Nset, nset=ASSEMBLY_HALFBLOCK-1-LIN-1-2-LIN-6-1__PICKEDSET2
  *Elset, elset=ASSEMBLY_HALFBLOCK-1-LIN-1-2-LIN-6-1__BOT_S5
  *Elset, elset=ASSEMBLY_HALFBLOCK-1-LIN-1-2-LIN-6-1__PICKEDSET2
  *Element, type=C3D8R
  *Nset, nset=ASSEMBLY_HALFBLOCK-1-LIN-1-2-LIN-7-1__PICKEDSET2
  *Elset, elset=ASSEMBLY_HALFBLOCK-1-LIN-1-2-LIN-7-1__BOT_S5
  *Elset, elset=ASSEMBLY_HALFBLOCK-1-LIN-1-2-LIN-7-1__PICKEDSET2
  *Element, type=C3D8R
  *Nset, nset=ASSEMBLY_HALFBLOCK-1-LIN-1-2-LIN-8-1__PICKEDSET2
  *Elset, elset=ASSEMBLY_HALFBLOCK-1-LIN-1-2-LIN-8-1__BOT_S5
  *Elset, elset=ASSEMBLY_HALFBLOCK-1-LIN-1-2-LIN-8-1__PICKEDSET2
  *Element, type=C3D8R
  *Nset, nset=ASSEMBLY_HALFBLOCK-1-LIN-1-2-LIN-9-1__PICKEDSET2
  *Elset, elset=ASSEMBLY_HALFBLOCK-1-LIN-1-2-LIN-9-1__BOT_S5
  *Elset, elset=ASSEMBLY_HALFBLOCK-1-LIN-1-2-LIN-9-1__PICKEDSET2
  *Element, type=C3D8R
  *Nset, nset=ASSEMBLY_HALFBLOCK-1-LIN-1-2-LIN-10-1__PICKEDSET2
  *Elset, elset=ASSEMBLY_HALFBLOCK-1-LIN-1-2-LIN-10-1__BOT_S5
  *Elset, elset=ASSEMBLY_HALFBLOCK-1-LIN-1-2-LIN-10-1__PICKEDSET2
  *Element, type=C3D8R
  *Nset, nset=ASSEMBLY_HALFBLOCK-1-LIN-1-2-LIN-11-1__PICKEDSET2
  *Elset, elset=ASSEMBLY_HALFBLOCK-1-LIN-1-2-LIN-11-1__BOT_S5
  *Elset, elset=ASSEMBLY_HALFBLOCK-1-LIN-1-2-LIN-11-1__PICKEDSET2
  *Element, type=C3D8R
  *Nset, nset=ASSEMBLY_BLOCK-2-LIN-1-8-LIN-2-1-LIN--LIN-2-1__PICKEDSET2
  *Elset, elset=ASSEMBLY_BLOCK-2-LIN-1-8-LIN-2-1-LIN--LIN-2-1__BOT_S5
  *Elset, elset=ASSEMBLY_BLOCK-2-LIN-1-8-LIN-2-1-LIN--LIN-2-1__PICKEDSET2
  *Element, type=C3D8R
  *Nset, nset=ASSEMBLY_BLOCK-2-LIN-1-8-LIN-2-1-LIN--LIN-3-1__PICKEDSET2
  *Elset, elset=ASSEMBLY_BLOCK-2-LIN-1-8-LIN-2-1-LIN--LIN-3-1__BOT_S5
  *Elset, elset=ASSEMBLY_BLOCK-2-LIN-1-8-LIN-2-1-LIN--LIN-3-1__PICKEDSET2
  *Element, type=C3D8R
  *Nset, nset=ASSEMBLY_BLOCK-2-LIN-1-8-LIN-2-1-LIN--LIN-4-1__PICKEDSET2
  *Elset, elset=ASSEMBLY_BLOCK-2-LIN-1-8-LIN-2-1-LIN--LIN-4-1__BOT_S5
  *Elset, elset=ASSEMBLY_BLOCK-2-LIN-1-8-LIN-2-1-LIN--LIN-4-1__PICKEDSET2
  *Element, type=C3D8R
  *Nset, nset=ASSEMBLY_BLOCK-2-LIN-1-8-LIN-2-1-LIN--LIN-5-1__PICKEDSET2
  *Elset, elset=ASSEMBLY_BLOCK-2-LIN-1-8-LIN-2-1-LIN--LIN-5-1__BOT_S5
  *Elset, elset=ASSEMBLY_BLOCK-2-LIN-1-8-LIN-2-1-LIN--LIN-5-1__PICKEDSET2
  *Element, type=C3D8R
  *Nset, nset=ASSEMBLY_BLOCK-2-LIN-1-8-LIN-2-1-LIN--LIN-6-1__PICKEDSET2
  *Elset, elset=ASSEMBLY_BLOCK-2-LIN-1-8-LIN-2-1-LIN--LIN-6-1__BOT_S5
  *Elset, elset=ASSEMBLY_BLOCK-2-LIN-1-8-LIN-2-1-LIN--LIN-6-1__PICKEDSET2
  *Element, type=C3D8R
  *Nset, nset=ASSEMBLY_BLOCK-2-LIN-1-8-LIN-2-1-LIN--LIN-7-1__PICKEDSET2
  *Elset, elset=ASSEMBLY_BLOCK-2-LIN-1-8-LIN-2-1-LIN--LIN-7-1__BOT_S5
  *Elset, elset=ASSEMBLY_BLOCK-2-LIN-1-8-LIN-2-1-LIN--LIN-7-1__PICKEDSET2
  *Element, type=C3D8R
  *Nset, nset=ASSEMBLY_BLOCK-2-LIN-1-8-LIN-2-1-LIN--LIN-8-1__PICKEDSET2
  *Elset, elset=ASSEMBLY_BLOCK-2-LIN-1-8-LIN-2-1-LIN--LIN-8-1__BOT_S5
  *Elset, elset=ASSEMBLY_BLOCK-2-LIN-1-8-LIN-2-1-LIN--LIN-8-1__PICKEDSET2
  *Element, type=C3D8R
  *Nset, nset=ASSEMBLY_BLOCK-2-LIN-1-8-LIN-2-1-LIN--LIN-9-1__PICKEDSET2
  *Elset, elset=ASSEMBLY_BLOCK-2-LIN-1-8-LIN-2-1-LIN--LIN-9-1__BOT_S5
  *Elset, elset=ASSEMBLY_BLOCK-2-LIN-1-8-LIN-2-1-LIN--LIN-9-1__PICKEDSET2
  *Element, type=C3D8R
  *Nset, nset=ASSEMBLY_BLOCK-2-LIN-1-8-LIN-2-1-LIN-LIN-10-1__PICKEDSET2
  *Elset, elset=ASSEMBLY_BLOCK-2-LIN-1-8-LIN-2-1-LIN-LIN-10-1__BOT_S5
  *Elset, elset=ASSEMBLY_BLOCK-2-LIN-1-8-LIN-2-1-LIN-LIN-10-1__PICKEDSET2
  *Element, type=C3D8R
  *Nset, nset=ASSEMBLY_BLOCK-2-LIN-1-8-LIN-2-1-LIN-LIN-11-1__PICKEDSET2
  *Elset, elset=ASSEMBLY_BLOCK-2-LIN-1-8-LIN-2-1-LIN-LIN-11-1__BOT_S5
  *Elset, elset=ASSEMBLY_BLOCK-2-LIN-1-8-LIN-2-1-LIN-LIN-11-1__PICKEDSET2
  *Element, type=C3D8R
  *Nset, nset=ASSEMBLY_BLOCK-2-LIN-1-8-LIN-2-1-LIN--LIN-2-1-2__PICKEDSET2
  *Elset, elset=ASSEMBLY_BLOCK-2-LIN-1-8-LIN-2-1-LIN--LIN-2-1-2__BOT_S5
  *Elset, elset=ASSEMBLY_BLOCK-2-LIN-1-8-LIN-2-1-LIN--LIN-2-1-2__PICKEDSET2
  *Element, type=C3D8R
  *Nset, nset=ASSEMBLY_BLOCK-2-LIN-1-8-LIN-2-1-LIN--LIN-3-1-2__PICKEDSET2
  *Elset, elset=ASSEMBLY_BLOCK-2-LIN-1-8-LIN-2-1-LIN--LIN-3-1-2__BOT_S5
  *Elset, elset=ASSEMBLY_BLOCK-2-LIN-1-8-LIN-2-1-LIN--LIN-3-1-2__PICKEDSET2
  *Element, type=C3D8R
  *Nset, nset=ASSEMBLY_BLOCK-2-LIN-1-8-LIN-2-1-LIN--LIN-4-1-2__PICKEDSET2
  *Elset, elset=ASSEMBLY_BLOCK-2-LIN-1-8-LIN-2-1-LIN--LIN-4-1-2__BOT_S5
  *Elset, elset=ASSEMBLY_BLOCK-2-LIN-1-8-LIN-2-1-LIN--LIN-4-1-2__PICKEDSET2
  *Element, type=C3D8R
  *Nset, nset=ASSEMBLY_BLOCK-2-LIN-1-8-LIN-2-1-LIN--LIN-5-1-2__PICKEDSET2
  *Elset, elset=ASSEMBLY_BLOCK-2-LIN-1-8-LIN-2-1-LIN--LIN-5-1-2__BOT_S5
  *Elset, elset=ASSEMBLY_BLOCK-2-LIN-1-8-LIN-2-1-LIN--LIN-5-1-2__PICKEDSET2
  *Element, type=C3D8R
  *Nset, nset=ASSEMBLY_BLOCK-2-LIN-1-8-LIN-2-1-LIN--LIN-6-1-2__PICKEDSET2
  *Elset, elset=ASSEMBLY_BLOCK-2-LIN-1-8-LIN-2-1-LIN--LIN-6-1-2__BOT_S5
  *Elset, elset=ASSEMBLY_BLOCK-2-LIN-1-8-LIN-2-1-LIN--LIN-6-1-2__PICKEDSET2
  *Element, type=C3D8R
  *Nset, nset=ASSEMBLY_BLOCK-2-LIN-1-8-LIN-2-1-LIN--LIN-7-1-2__PICKEDSET2
  *Elset, elset=ASSEMBLY_BLOCK-2-LIN-1-8-LIN-2-1-LIN--LIN-7-1-2__BOT_S5
  *Elset, elset=ASSEMBLY_BLOCK-2-LIN-1-8-LIN-2-1-LIN--LIN-7-1-2__PICKEDSET2
  *Element, type=C3D8R
  *Nset, nset=ASSEMBLY_BLOCK-2-LIN-1-8-LIN-2-1-LIN--LIN-8-1-2__PICKEDSET2
  *Elset, elset=ASSEMBLY_BLOCK-2-LIN-1-8-LIN-2-1-LIN--LIN-8-1-2__BOT_S5
  *Elset, elset=ASSEMBLY_BLOCK-2-LIN-1-8-LIN-2-1-LIN--LIN-8-1-2__PICKEDSET2
  *Element, type=C3D8R
  *Nset, nset=ASSEMBLY_BLOCK-2-LIN-1-8-LIN-2-1-LIN--LIN-9-1-2__PICKEDSET2
  *Elset, elset=ASSEMBLY_BLOCK-2-LIN-1-8-LIN-2-1-LIN--LIN-9-1-2__BOT_S5
  *Elset, elset=ASSEMBLY_BLOCK-2-LIN-1-8-LIN-2-1-LIN--LIN-9-1-2__PICKEDSET2
  *Element, type=C3D8R
  *Nset, nset=ASSEMBLY_BLOCK-2-LIN-1-8-LIN-2-1-LIN-LIN-10-1-2__PICKEDSET2
  *Elset, elset=ASSEMBLY_BLOCK-2-LIN-1-8-LIN-2-1-LIN-LIN-10-1-2__BOT_S5
  *Elset, elset=ASSEMBLY_BLOCK-2-LIN-1-8-LIN-2-1-LIN-LIN-10-1-2__PICKEDSET2
  *Element, type=C3D8R
  *Nset, nset=ASSEMBLY_BLOCK-2-LIN-1-8-LIN-2-1-LIN-LIN-11-1-2__PICKEDSET2
  *Elset, elset=ASSEMBLY_BLOCK-2-LIN-1-8-LIN-2-1-LIN-LIN-11-1-2__BOT_S5
  *Elset, elset=ASSEMBLY_BLOCK-2-LIN-1-8-LIN-2-1-LIN-LIN-11-1-2__PICKEDSET2
  *Element, type=C3D8R
  *Nset, nset=ASSEMBLY_BLOCK-2-LIN-1-3-LIN-2-1__PICKEDSET2
  *Elset, elset=ASSEMBLY_BLOCK-2-LIN-1-3-LIN-2-1__BOT_S5
  *Elset, elset=ASSEMBLY_BLOCK-2-LIN-1-3-LIN-2-1__PICKEDSET2
  *Element, type=C3D8R
  *Nset, nset=ASSEMBLY_BLOCK-2-LIN-1-3-LIN-3-1__PICKEDSET2
  *Elset, elset=ASSEMBLY_BLOCK-2-LIN-1-3-LIN-3-1__BOT_S5
  *Elset, elset=ASSEMBLY_BLOCK-2-LIN-1-3-LIN-3-1__PICKEDSET2
  *Element, type=C3D8R
  *Nset, nset=ASSEMBLY_BLOCK-2-LIN-1-3-LIN-4-1__PICKEDSET2
  *Elset, elset=ASSEMBLY_BLOCK-2-LIN-1-3-LIN-4-1__BOT_S5
  *Elset, elset=ASSEMBLY_BLOCK-2-LIN-1-3-LIN-4-1__PICKEDSET2
  *Element, type=C3D8R
  *Nset, nset=ASSEMBLY_BLOCK-2-LIN-1-3-LIN-5-1__PICKEDSET2
  *Elset, elset=ASSEMBLY_BLOCK-2-LIN-1-3-LIN-5-1__BOT_S5
  *Elset, elset=ASSEMBLY_BLOCK-2-LIN-1-3-LIN-5-1__PICKEDSET2
  *Element, type=C3D8R
  *Nset, nset=ASSEMBLY_BLOCK-2-LIN-1-3-LIN-6-1__PICKEDSET2
  *Elset, elset=ASSEMBLY_BLOCK-2-LIN-1-3-LIN-6-1__BOT_S5
  *Elset, elset=ASSEMBLY_BLOCK-2-LIN-1-3-LIN-6-1__PICKEDSET2
  *Element, type=C3D8R
  *Nset, nset=ASSEMBLY_BLOCK-2-LIN-1-3-LIN-7-1__PICKEDSET2
  *Elset, elset=ASSEMBLY_BLOCK-2-LIN-1-3-LIN-7-1__BOT_S5
  *Elset, elset=ASSEMBLY_BLOCK-2-LIN-1-3-LIN-7-1__PICKEDSET2
  *Element, type=C3D8R
  *Nset, nset=ASSEMBLY_BLOCK-2-LIN-1-3-LIN-8-1__PICKEDSET2
  *Elset, elset=ASSEMBLY_BLOCK-2-LIN-1-3-LIN-8-1__BOT_S5
  *Elset, elset=ASSEMBLY_BLOCK-2-LIN-1-3-LIN-8-1__PICKEDSET2
  *Element, type=C3D8R
  *Nset, nset=ASSEMBLY_BLOCK-2-LIN-1-3-LIN-9-1__PICKEDSET2
  *Elset, elset=ASSEMBLY_BLOCK-2-LIN-1-3-LIN-9-1__BOT_S5
  *Elset, elset=ASSEMBLY_BLOCK-2-LIN-1-3-LIN-9-1__PICKEDSET2
  *Element, type=C3D8R
  *Nset, nset=ASSEMBLY_BLOCK-2-LIN-1-3-LIN-10-1__PICKEDSET2
  *Elset, elset=ASSEMBLY_BLOCK-2-LIN-1-3-LIN-10-1__BOT_S5
  *Elset, elset=ASSEMBLY_BLOCK-2-LIN-1-3-LIN-10-1__PICKEDSET2
  *Element, type=C3D8R
  *Nset, nset=ASSEMBLY_BLOCK-2-LIN-1-3-LIN-11-1__PICKEDSET2
  *Elset, elset=ASSEMBLY_BLOCK-2-LIN-1-3-LIN-11-1__BOT_S5
  *Elset, elset=ASSEMBLY_BLOCK-2-LIN-1-3-LIN-11-1__PICKEDSET2
  *Element, type=C3D8R
  *Nset, nset=ASSEMBLY_BLOCK-2-LIN-1-8-LIN-2-1-LIN--LIN-2-1-4__PICKEDSET2
  *Elset, elset=ASSEMBLY_BLOCK-2-LIN-1-8-LIN-2-1-LIN--LIN-2-1-4__BOT_S5
  *Elset, elset=ASSEMBLY_BLOCK-2-LIN-1-8-LIN-2-1-LIN--LIN-2-1-4__PICKEDSET2
  *Element, type=C3D8R
  *Nset, nset=ASSEMBLY_BLOCK-2-LIN-1-8-LIN-2-1-LIN--LIN-3-1-4__PICKEDSET2
  *Elset, elset=ASSEMBLY_BLOCK-2-LIN-1-8-LIN-2-1-LIN--LIN-3-1-4__BOT_S5
  *Elset, elset=ASSEMBLY_BLOCK-2-LIN-1-8-LIN-2-1-LIN--LIN-3-1-4__PICKEDSET2
  *Element, type=C3D8R
  *Nset, nset=ASSEMBLY_BLOCK-2-LIN-1-8-LIN-2-1-LIN--LIN-4-1-4__PICKEDSET2
  *Elset, elset=ASSEMBLY_BLOCK-2-LIN-1-8-LIN-2-1-LIN--LIN-4-1-4__BOT_S5
  *Elset, elset=ASSEMBLY_BLOCK-2-LIN-1-8-LIN-2-1-LIN--LIN-4-1-4__PICKEDSET2
  *Element, type=C3D8R
  *Nset, nset=ASSEMBLY_BLOCK-2-LIN-1-8-LIN-2-1-LIN--LIN-5-1-4__PICKEDSET2
  *Elset, elset=ASSEMBLY_BLOCK-2-LIN-1-8-LIN-2-1-LIN--LIN-5-1-4__BOT_S5
  *Elset, elset=ASSEMBLY_BLOCK-2-LIN-1-8-LIN-2-1-LIN--LIN-5-1-4__PICKEDSET2
  *Element, type=C3D8R
  *Nset, nset=ASSEMBLY_BLOCK-2-LIN-1-8-LIN-2-1-LIN--LIN-6-1-4__PICKEDSET2
  *Elset, elset=ASSEMBLY_BLOCK-2-LIN-1-8-LIN-2-1-LIN--LIN-6-1-4__BOT_S5
  *Elset, elset=ASSEMBLY_BLOCK-2-LIN-1-8-LIN-2-1-LIN--LIN-6-1-4__PICKEDSET2
  *Element, type=C3D8R
  *Nset, nset=ASSEMBLY_BLOCK-2-LIN-1-8-LIN-2-1-LIN--LIN-7-1-4__PICKEDSET2
  *Elset, elset=ASSEMBLY_BLOCK-2-LIN-1-8-LIN-2-1-LIN--LIN-7-1-4__BOT_S5
  *Elset, elset=ASSEMBLY_BLOCK-2-LIN-1-8-LIN-2-1-LIN--LIN-7-1-4__PICKEDSET2
  *Element, type=C3D8R
  *Nset, nset=ASSEMBLY_BLOCK-2-LIN-1-8-LIN-2-1-LIN--LIN-8-1-4__PICKEDSET2
  *Elset, elset=ASSEMBLY_BLOCK-2-LIN-1-8-LIN-2-1-LIN--LIN-8-1-4__BOT_S5
  *Elset, elset=ASSEMBLY_BLOCK-2-LIN-1-8-LIN-2-1-LIN--LIN-8-1-4__PICKEDSET2
  *Element, type=C3D8R
  *Nset, nset=ASSEMBLY_BLOCK-2-LIN-1-8-LIN-2-1-LIN--LIN-9-1-4__PICKEDSET2
  *Elset, elset=ASSEMBLY_BLOCK-2-LIN-1-8-LIN-2-1-LIN--LIN-9-1-4__BOT_S5
  *Elset, elset=ASSEMBLY_BLOCK-2-LIN-1-8-LIN-2-1-LIN--LIN-9-1-4__PICKEDSET2
  *Element, type=C3D8R
  *Nset, nset=ASSEMBLY_BLOCK-2-LIN-1-8-LIN-2-1-LIN-LIN-10-1-4__PICKEDSET2
  *Elset, elset=ASSEMBLY_BLOCK-2-LIN-1-8-LIN-2-1-LIN-LIN-10-1-4__BOT_S5
  *Elset, elset=ASSEMBLY_BLOCK-2-LIN-1-8-LIN-2-1-LIN-LIN-10-1-4__PICKEDSET2
  *Element, type=C3D8R
  *Nset, nset=ASSEMBLY_BLOCK-2-LIN-1-8-LIN-2-1-LIN-LIN-11-1-4__PICKEDSET2
  *Elset, elset=ASSEMBLY_BLOCK-2-LIN-1-8-LIN-2-1-LIN-LIN-11-1-4__BOT_S5
  *Elset, elset=ASSEMBLY_BLOCK-2-LIN-1-8-LIN-2-1-LIN-LIN-11-1-4__PICKEDSET2
  *Element, type=C3D8R
  *Nset, nset=ASSEMBLY_BLOCK-2-LIN-1-8-LIN-2-1-LIN-2-1__PICKEDSET2
  *Elset, elset=ASSEMBLY_BLOCK-2-LIN-1-8-LIN-2-1-LIN-2-1__BOT_S5
  *Elset, elset=ASSEMBLY_BLOCK-2-LIN-1-8-LIN-2-1-LIN-2-1__PICKEDSET2
  *Element, type=C3D8R
  *Nset, nset=ASSEMBLY_BLOCK-2-LIN-1-8-LIN-2-1-LIN-3-1__PICKEDSET2
  *Elset, elset=ASSEMBLY_BLOCK-2-LIN-1-8-LIN-2-1-LIN-3-1__BOT_S5
  *Elset, elset=ASSEMBLY_BLOCK-2-LIN-1-8-LIN-2-1-LIN-3-1__PICKEDSET2
  *Element, type=C3D8R
  *Nset, nset=ASSEMBLY_BLOCK-2-LIN-1-8-LIN-2-1-LIN-4-1__PICKEDSET2
  *Elset, elset=ASSEMBLY_BLOCK-2-LIN-1-8-LIN-2-1-LIN-4-1__BOT_S5
  *Elset, elset=ASSEMBLY_BLOCK-2-LIN-1-8-LIN-2-1-LIN-4-1__PICKEDSET2
  *Element, type=C3D8R
  *Nset, nset=ASSEMBLY_BLOCK-2-LIN-1-8-LIN-2-1-LIN-5-1__PICKEDSET2
  *Elset, elset=ASSEMBLY_BLOCK-2-LIN-1-8-LIN-2-1-LIN-5-1__BOT_S5
  *Elset, elset=ASSEMBLY_BLOCK-2-LIN-1-8-LIN-2-1-LIN-5-1__PICKEDSET2
  *Element, type=C3D8R
  *Nset, nset=ASSEMBLY_BLOCK-2-LIN-1-8-LIN-2-1-LIN-6-1__PICKEDSET2
  *Elset, elset=ASSEMBLY_BLOCK-2-LIN-1-8-LIN-2-1-LIN-6-1__BOT_S5
  *Elset, elset=ASSEMBLY_BLOCK-2-LIN-1-8-LIN-2-1-LIN-6-1__PICKEDSET2
  *Element, type=C3D8R
  *Nset, nset=ASSEMBLY_BLOCK-2-LIN-1-8-LIN-2-1-LIN-7-1__PICKEDSET2
  *Elset, elset=ASSEMBLY_BLOCK-2-LIN-1-8-LIN-2-1-LIN-7-1__BOT_S5
  *Elset, elset=ASSEMBLY_BLOCK-2-LIN-1-8-LIN-2-1-LIN-7-1__PICKEDSET2
  *Element, type=C3D8R
  *Nset, nset=ASSEMBLY_BLOCK-2-LIN-1-8-LIN-2-1-LIN-8-1__PICKEDSET2
  *Elset, elset=ASSEMBLY_BLOCK-2-LIN-1-8-LIN-2-1-LIN-8-1__BOT_S5
  *Elset, elset=ASSEMBLY_BLOCK-2-LIN-1-8-LIN-2-1-LIN-8-1__PICKEDSET2
  *Element, type=C3D8R
  *Nset, nset=ASSEMBLY_BLOCK-2-LIN-1-8-LIN-2-1-LIN-9-1__PICKEDSET2
  *Elset, elset=ASSEMBLY_BLOCK-2-LIN-1-8-LIN-2-1-LIN-9-1__BOT_S5
  *Elset, elset=ASSEMBLY_BLOCK-2-LIN-1-8-LIN-2-1-LIN-9-1__PICKEDSET2
  *Element, type=C3D8R
  *Nset, nset=ASSEMBLY_BLOCK-2-LIN-1-8-LIN-2-1-LIN-10-1__PICKEDSET2
  *Elset, elset=ASSEMBLY_BLOCK-2-LIN-1-8-LIN-2-1-LIN-10-1__BOT_S5
  *Elset, elset=ASSEMBLY_BLOCK-2-LIN-1-8-LIN-2-1-LIN-10-1__PICKEDSET2
  *Element, type=C3D8R
  *Nset, nset=ASSEMBLY_BLOCK-2-LIN-1-8-LIN-2-1-LIN-11-1__PICKEDSET2
  *Elset, elset=ASSEMBLY_BLOCK-2-LIN-1-8-LIN-2-1-LIN-11-1__BOT_S5
  *Elset, elset=ASSEMBLY_BLOCK-2-LIN-1-8-LIN-2-1-LIN-11-1__PICKEDSET2
  *Element, type=C3D8R
  *Nset, nset=ASSEMBLY_BLOCK-2-LIN-1-5-LIN-2-1__PICKEDSET2
  *Elset, elset=ASSEMBLY_BLOCK-2-LIN-1-5-LIN-2-1__BOT_S5
  *Elset, elset=ASSEMBLY_BLOCK-2-LIN-1-5-LIN-2-1__PICKEDSET2
  *Element, type=C3D8R
  *Nset, nset=ASSEMBLY_BLOCK-2-LIN-1-5-LIN-3-1__PICKEDSET2
  *Elset, elset=ASSEMBLY_BLOCK-2-LIN-1-5-LIN-3-1__BOT_S5
  *Elset, elset=ASSEMBLY_BLOCK-2-LIN-1-5-LIN-3-1__PICKEDSET2
  *Element, type=C3D8R
  *Nset, nset=ASSEMBLY_BLOCK-2-LIN-1-5-LIN-4-1__PICKEDSET2
  *Elset, elset=ASSEMBLY_BLOCK-2-LIN-1-5-LIN-4-1__BOT_S5
  *Elset, elset=ASSEMBLY_BLOCK-2-LIN-1-5-LIN-4-1__PICKEDSET2
  *Element, type=C3D8R
  *Nset, nset=ASSEMBLY_BLOCK-2-LIN-1-5-LIN-5-1__PICKEDSET2
  *Elset, elset=ASSEMBLY_BLOCK-2-LIN-1-5-LIN-5-1__BOT_S5
  *Elset, elset=ASSEMBLY_BLOCK-2-LIN-1-5-LIN-5-1__PICKEDSET2
  *Element, type=C3D8R
  *Nset, nset=ASSEMBLY_BLOCK-2-LIN-1-5-LIN-6-1__PICKEDSET2
  *Elset, elset=ASSEMBLY_BLOCK-2-LIN-1-5-LIN-6-1__BOT_S5
  *Elset, elset=ASSEMBLY_BLOCK-2-LIN-1-5-LIN-6-1__PICKEDSET2
  *Element, type=C3D8R
  *Nset, nset=ASSEMBLY_BLOCK-2-LIN-1-5-LIN-7-1__PICKEDSET2
  *Elset, elset=ASSEMBLY_BLOCK-2-LIN-1-5-LIN-7-1__BOT_S5
  *Elset, elset=ASSEMBLY_BLOCK-2-LIN-1-5-LIN-7-1__PICKEDSET2
  *Element, type=C3D8R
  *Nset, nset=ASSEMBLY_BLOCK-2-LIN-1-5-LIN-8-1__PICKEDSET2
  *Elset, elset=ASSEMBLY_BLOCK-2-LIN-1-5-LIN-8-1__BOT_S5
  *Elset, elset=ASSEMBLY_BLOCK-2-LIN-1-5-LIN-8-1__PICKEDSET2
  *Element, type=C3D8R
  *Nset, nset=ASSEMBLY_BLOCK-2-LIN-1-5-LIN-9-1__PICKEDSET2
  *Elset, elset=ASSEMBLY_BLOCK-2-LIN-1-5-LIN-9-1__BOT_S5
  *Elset, elset=ASSEMBLY_BLOCK-2-LIN-1-5-LIN-9-1__PICKEDSET2
  *Element, type=C3D8R
  *Nset, nset=ASSEMBLY_BLOCK-2-LIN-1-5-LIN-10-1__PICKEDSET2
  *Elset, elset=ASSEMBLY_BLOCK-2-LIN-1-5-LIN-10-1__BOT_S5
  *Elset, elset=ASSEMBLY_BLOCK-2-LIN-1-5-LIN-10-1__PICKEDSET2
  *Element, type=C3D8R
  *Nset, nset=ASSEMBLY_BLOCK-2-LIN-1-5-LIN-11-1__PICKEDSET2
  *Elset, elset=ASSEMBLY_BLOCK-2-LIN-1-5-LIN-11-1__BOT_S5
  *Elset, elset=ASSEMBLY_BLOCK-2-LIN-1-5-LIN-11-1__PICKEDSET2
  *Element, type=C3D8R
  *Nset, nset=ASSEMBLY_BLOCK-2-LIN-1-8-LIN-2-1-LIN--LIN-2-1-6__PICKEDSET2
  *Elset, elset=ASSEMBLY_BLOCK-2-LIN-1-8-LIN-2-1-LIN--LIN-2-1-6__BOT_S5
  *Elset, elset=ASSEMBLY_BLOCK-2-LIN-1-8-LIN-2-1-LIN--LIN-2-1-6__PICKEDSET2
  *Element, type=C3D8R
  *Nset, nset=ASSEMBLY_BLOCK-2-LIN-1-8-LIN-2-1-LIN--LIN-3-1-6__PICKEDSET2
  *Elset, elset=ASSEMBLY_BLOCK-2-LIN-1-8-LIN-2-1-LIN--LIN-3-1-6__BOT_S5
  *Elset, elset=ASSEMBLY_BLOCK-2-LIN-1-8-LIN-2-1-LIN--LIN-3-1-6__PICKEDSET2
  *Element, type=C3D8R
  *Nset, nset=ASSEMBLY_BLOCK-2-LIN-1-8-LIN-2-1-LIN--LIN-4-1-6__PICKEDSET2
  *Elset, elset=ASSEMBLY_BLOCK-2-LIN-1-8-LIN-2-1-LIN--LIN-4-1-6__BOT_S5
  *Elset, elset=ASSEMBLY_BLOCK-2-LIN-1-8-LIN-2-1-LIN--LIN-4-1-6__PICKEDSET2
  *Element, type=C3D8R
  *Nset, nset=ASSEMBLY_BLOCK-2-LIN-1-8-LIN-2-1-LIN--LIN-5-1-6__PICKEDSET2
  *Elset, elset=ASSEMBLY_BLOCK-2-LIN-1-8-LIN-2-1-LIN--LIN-5-1-6__BOT_S5
  *Elset, elset=ASSEMBLY_BLOCK-2-LIN-1-8-LIN-2-1-LIN--LIN-5-1-6__PICKEDSET2
  *Element, type=C3D8R
  *Nset, nset=ASSEMBLY_BLOCK-2-LIN-1-8-LIN-2-1-LIN--LIN-6-1-6__PICKEDSET2
  *Elset, elset=ASSEMBLY_BLOCK-2-LIN-1-8-LIN-2-1-LIN--LIN-6-1-6__BOT_S5
  *Elset, elset=ASSEMBLY_BLOCK-2-LIN-1-8-LIN-2-1-LIN--LIN-6-1-6__PICKEDSET2
  *Element, type=C3D8R
  *Nset, nset=ASSEMBLY_BLOCK-2-LIN-1-8-LIN-2-1-LIN--LIN-7-1-6__PICKEDSET2
  *Elset, elset=ASSEMBLY_BLOCK-2-LIN-1-8-LIN-2-1-LIN--LIN-7-1-6__BOT_S5
  *Elset, elset=ASSEMBLY_BLOCK-2-LIN-1-8-LIN-2-1-LIN--LIN-7-1-6__PICKEDSET2
  *Element, type=C3D8R
  *Nset, nset=ASSEMBLY_BLOCK-2-LIN-1-8-LIN-2-1-LIN--LIN-8-1-6__PICKEDSET2
  *Elset, elset=ASSEMBLY_BLOCK-2-LIN-1-8-LIN-2-1-LIN--LIN-8-1-6__BOT_S5
  *Elset, elset=ASSEMBLY_BLOCK-2-LIN-1-8-LIN-2-1-LIN--LIN-8-1-6__PICKEDSET2
  *Element, type=C3D8R
  *Nset, nset=ASSEMBLY_BLOCK-2-LIN-1-8-LIN-2-1-LIN--LIN-9-1-6__PICKEDSET2
  *Elset, elset=ASSEMBLY_BLOCK-2-LIN-1-8-LIN-2-1-LIN--LIN-9-1-6__BOT_S5
  *Elset, elset=ASSEMBLY_BLOCK-2-LIN-1-8-LIN-2-1-LIN--LIN-9-1-6__PICKEDSET2
  *Element, type=C3D8R
  *Nset, nset=ASSEMBLY_BLOCK-2-LIN-1-8-LIN-2-1-LIN-LIN-10-1-6__PICKEDSET2
  *Elset, elset=ASSEMBLY_BLOCK-2-LIN-1-8-LIN-2-1-LIN-LIN-10-1-6__BOT_S5
  *Elset, elset=ASSEMBLY_BLOCK-2-LIN-1-8-LIN-2-1-LIN-LIN-10-1-6__PICKEDSET2
  *Element, type=C3D8R
  *Nset, nset=ASSEMBLY_BLOCK-2-LIN-1-8-LIN-2-1-LIN-LIN-11-1-6__PICKEDSET2
  *Elset, elset=ASSEMBLY_BLOCK-2-LIN-1-8-LIN-2-1-LIN-LIN-11-1-6__BOT_S5
  *Elset, elset=ASSEMBLY_BLOCK-2-LIN-1-8-LIN-2-1-LIN-LIN-11-1-6__PICKEDSET2
  *Element, type=C3D8R
  *Nset, nset=ASSEMBLY_BLOCK-2-LIN-1-7-LIN-2-1__PICKEDSET2
  *Elset, elset=ASSEMBLY_BLOCK-2-LIN-1-7-LIN-2-1__BOT_S5
  *Elset, elset=ASSEMBLY_BLOCK-2-LIN-1-7-LIN-2-1__PICKEDSET2
  *Element, type=C3D8R
  *Nset, nset=ASSEMBLY_BLOCK-2-LIN-1-7-LIN-3-1__PICKEDSET2
  *Elset, elset=ASSEMBLY_BLOCK-2-LIN-1-7-LIN-3-1__BOT_S5
  *Elset, elset=ASSEMBLY_BLOCK-2-LIN-1-7-LIN-3-1__PICKEDSET2
  *Element, type=C3D8R
  *Nset, nset=ASSEMBLY_BLOCK-2-LIN-1-7-LIN-4-1__PICKEDSET2
  *Elset, elset=ASSEMBLY_BLOCK-2-LIN-1-7-LIN-4-1__BOT_S5
  *Elset, elset=ASSEMBLY_BLOCK-2-LIN-1-7-LIN-4-1__PICKEDSET2
  *Element, type=C3D8R
  *Nset, nset=ASSEMBLY_BLOCK-2-LIN-1-7-LIN-5-1__PICKEDSET2
  *Elset, elset=ASSEMBLY_BLOCK-2-LIN-1-7-LIN-5-1__BOT_S5
  *Elset, elset=ASSEMBLY_BLOCK-2-LIN-1-7-LIN-5-1__PICKEDSET2
  *Element, type=C3D8R
  *Nset, nset=ASSEMBLY_BLOCK-2-LIN-1-7-LIN-6-1__PICKEDSET2
  *Elset, elset=ASSEMBLY_BLOCK-2-LIN-1-7-LIN-6-1__BOT_S5
  *Elset, elset=ASSEMBLY_BLOCK-2-LIN-1-7-LIN-6-1__PICKEDSET2
  *Element, type=C3D8R
  *Nset, nset=ASSEMBLY_BLOCK-2-LIN-1-7-LIN-7-1__PICKEDSET2
  *Elset, elset=ASSEMBLY_BLOCK-2-LIN-1-7-LIN-7-1__BOT_S5
  *Elset, elset=ASSEMBLY_BLOCK-2-LIN-1-7-LIN-7-1__PICKEDSET2
  *Element, type=C3D8R
  *Nset, nset=ASSEMBLY_BLOCK-2-LIN-1-7-LIN-8-1__PICKEDSET2
  *Elset, elset=ASSEMBLY_BLOCK-2-LIN-1-7-LIN-8-1__BOT_S5
  *Elset, elset=ASSEMBLY_BLOCK-2-LIN-1-7-LIN-8-1__PICKEDSET2
  *Element, type=C3D8R
  *Nset, nset=ASSEMBLY_BLOCK-2-LIN-1-7-LIN-9-1__PICKEDSET2
  *Elset, elset=ASSEMBLY_BLOCK-2-LIN-1-7-LIN-9-1__BOT_S5
  *Elset, elset=ASSEMBLY_BLOCK-2-LIN-1-7-LIN-9-1__PICKEDSET2
  *Element, type=C3D8R
  *Nset, nset=ASSEMBLY_BLOCK-2-LIN-1-7-LIN-10-1__PICKEDSET2
  *Elset, elset=ASSEMBLY_BLOCK-2-LIN-1-7-LIN-10-1__BOT_S5
  *Elset, elset=ASSEMBLY_BLOCK-2-LIN-1-7-LIN-10-1__PICKEDSET2
  *Element, type=C3D8R
  *Nset, nset=ASSEMBLY_BLOCK-2-LIN-1-7-LIN-11-1__PICKEDSET2
  *Elset, elset=ASSEMBLY_BLOCK-2-LIN-1-7-LIN-11-1__BOT_S5
  *Elset, elset=ASSEMBLY_BLOCK-2-LIN-1-7-LIN-11-1__PICKEDSET2
  *Nset, nset="ASSEMBLY__T-Datum csys-1"
  *Nset, nset=ASSEMBLY__PICKEDSET426
  *Nset, nset=ASSEMBLY__PICKEDSET481
  *Nset, nset=ASSEMBLY__PICKEDSET482
  *Nset, nset=ASSEMBLY__PICKEDSET483
  *Nset, nset=ASSEMBLY__PICKEDSET484
  *Elset, elset=ASSEMBLY__BOTTOMS_S5
  *Elset, elset=ASSEMBLY__PICKEDSET426
  *material, name="Concrete C30/37"
  *density
  *elastic
  *solidsection, elset=ASSEMBLY_HALFBLOCK-1__PICKEDSET2, material="Concrete C30/37"
  *solidsection, elset=ASSEMBLY_BLOCK-2__PICKEDSET2, material="Concrete C30/37"
  *solidsection, elset=ASSEMBLY_BLOCK-2-LIN-1-2__PICKEDSET2, material="Concrete C30/37"
  *solidsection, elset=ASSEMBLY_BLOCK-2-LIN-1-3__PICKEDSET2, material="Concrete C30/37"
  *solidsection, elset=ASSEMBLY_BLOCK-2-LIN-1-4__PICKEDSET2, material="Concrete C30/37"
  *solidsection, elset=ASSEMBLY_BLOCK-2-LIN-1-5__PICKEDSET2, material="Concrete C30/37"
  *solidsection, elset=ASSEMBLY_BLOCK-2-LIN-1-6__PICKEDSET2, material="Concrete C30/37"
  *solidsection, elset=ASSEMBLY_BLOCK-2-LIN-1-7__PICKEDSET2, material="Concrete C30/37"
  *solidsection, elset=ASSEMBLY_BLOCK-2-LIN-1-8__PICKEDSET2, material="Concrete C30/37"
  *solidsection, elset=ASSEMBLY_HALFBLOCK-1-LIN-1-2__PICKEDSET2, material="Concrete C30/37"
  *solidsection, elset=ASSEMBLY_BLOCK-2-LIN-1-8-LIN-2-1__PICKEDSET2, material="Concrete C30/37"
  *solidsection, elset=ASSEMBLY_BLOCK-2-LIN-1-8-LIN-2-1-LIN-1-2__PICKEDSET2, material="Concrete C30/37"
  *solidsection, elset=ASSEMBLY_BLOCK-2-LIN-1-8-LIN-2-1-LIN-1-3__PICKEDSET2, material="Concrete C30/37"
  *solidsection, elset=ASSEMBLY_BLOCK-2-LIN-1-8-LIN-2-1-LIN-1-4__PICKEDSET2, material="Concrete C30/37"
  *solidsection, elset=ASSEMBLY_BLOCK-2-LIN-1-8-LIN-2-1-LIN-1-5__PICKEDSET2, material="Concrete C30/37"
  *solidsection, elset=ASSEMBLY_BLOCK-2-LIN-1-8-LIN-2-1-LIN-1-6__PICKEDSET2, material="Concrete C30/37"
  *solidsection, elset=ASSEMBLY_BLOCK-2-LIN-1-8-LIN-2-1-LIN-1-7__PICKEDSET2, material="Concrete C30/37"
  *solidsection, elset=ASSEMBLY_BLOCK-2-LIN-1-8-LIN-2-1-LIN-1-8__PICKEDSET2, material="Concrete C30/37"
  *solidsection, elset=ASSEMBLY_BLOCK-2-LIN-1-8-LIN-2-1-LIN-1-9__PICKEDSET2, material="Concrete C30/37"
  *solidsection, elset=ASSEMBLY_HALFBLOCK-1-LIN-2-1__PICKEDSET2, material="Concrete C30/37"
  *solidsection, elset=ASSEMBLY_HALFBLOCK-1-LIN-3-1__PICKEDSET2, material="Concrete C30/37"
  *solidsection, elset=ASSEMBLY_HALFBLOCK-1-LIN-4-1__PICKEDSET2, material="Concrete C30/37"
  *solidsection, elset=ASSEMBLY_HALFBLOCK-1-LIN-5-1__PICKEDSET2, material="Concrete C30/37"
  *solidsection, elset=ASSEMBLY_HALFBLOCK-1-LIN-6-1__PICKEDSET2, material="Concrete C30/37"
  *solidsection, elset=ASSEMBLY_HALFBLOCK-1-LIN-7-1__PICKEDSET2, material="Concrete C30/37"
  *solidsection, elset=ASSEMBLY_HALFBLOCK-1-LIN-8-1__PICKEDSET2, material="Concrete C30/37"
  *solidsection, elset=ASSEMBLY_HALFBLOCK-1-LIN-9-1__PICKEDSET2, material="Concrete C30/37"
  *solidsection, elset=ASSEMBLY_HALFBLOCK-1-LIN-10-1__PICKEDSET2, material="Concrete C30/37"
  *solidsection, elset=ASSEMBLY_HALFBLOCK-1-LIN-11-1__PICKEDSET2, material="Concrete C30/37"
  *solidsection, elset=ASSEMBLY_BLOCK-2-LIN-2-1__PICKEDSET2, material="Concrete C30/37"
  *solidsection, elset=ASSEMBLY_BLOCK-2-LIN-3-1__PICKEDSET2, material="Concrete C30/37"
  *solidsection, elset=ASSEMBLY_BLOCK-2-LIN-4-1__PICKEDSET2, material="Concrete C30/37"
  *solidsection, elset=ASSEMBLY_BLOCK-2-LIN-5-1__PICKEDSET2, material="Concrete C30/37"
  *solidsection, elset=ASSEMBLY_BLOCK-2-LIN-6-1__PICKEDSET2, material="Concrete C30/37"
  *solidsection, elset=ASSEMBLY_BLOCK-2-LIN-7-1__PICKEDSET2, material="Concrete C30/37"
  *solidsection, elset=ASSEMBLY_BLOCK-2-LIN-8-1__PICKEDSET2, material="Concrete C30/37"
  *solidsection, elset=ASSEMBLY_BLOCK-2-LIN-9-1__PICKEDSET2, material="Concrete C30/37"
  *solidsection, elset=ASSEMBLY_BLOCK-2-LIN-10-1__PICKEDSET2, material="Concrete C30/37"
  *solidsection, elset=ASSEMBLY_BLOCK-2-LIN-11-1__PICKEDSET2, material="Concrete C30/37"
  *solidsection, elset=ASSEMBLY_BLOCK-2-LIN-1-8-LIN-2-1-LIN--LIN-2-1-1__PICKEDSET2, material="Concrete C30/37"
  *solidsection, elset=ASSEMBLY_BLOCK-2-LIN-1-8-LIN-2-1-LIN--LIN-3-1-1__PICKEDSET2, material="Concrete C30/37"
  *solidsection, elset=ASSEMBLY_BLOCK-2-LIN-1-8-LIN-2-1-LIN--LIN-4-1-1__PICKEDSET2, material="Concrete C30/37"
  *solidsection, elset=ASSEMBLY_BLOCK-2-LIN-1-8-LIN-2-1-LIN--LIN-5-1-1__PICKEDSET2, material="Concrete C30/37"
  *solidsection, elset=ASSEMBLY_BLOCK-2-LIN-1-8-LIN-2-1-LIN--LIN-6-1-1__PICKEDSET2, material="Concrete C30/37"
  *solidsection, elset=ASSEMBLY_BLOCK-2-LIN-1-8-LIN-2-1-LIN--LIN-7-1-1__PICKEDSET2, material="Concrete C30/37"
  *solidsection, elset=ASSEMBLY_BLOCK-2-LIN-1-8-LIN-2-1-LIN--LIN-8-1-1__PICKEDSET2, material="Concrete C30/37"
  *solidsection, elset=ASSEMBLY_BLOCK-2-LIN-1-8-LIN-2-1-LIN--LIN-9-1-1__PICKEDSET2, material="Concrete C30/37"
  *solidsection, elset=ASSEMBLY_BLOCK-2-LIN-1-8-LIN-2-1-LIN-LIN-10-1-1__PICKEDSET2, material="Concrete C30/37"
  *solidsection, elset=ASSEMBLY_BLOCK-2-LIN-1-8-LIN-2-1-LIN-LIN-11-1-1__PICKEDSET2, material="Concrete C30/37"
  *solidsection, elset=ASSEMBLY_BLOCK-2-LIN-1-2-LIN-2-1__PICKEDSET2, material="Concrete C30/37"
  *solidsection, elset=ASSEMBLY_BLOCK-2-LIN-1-2-LIN-3-1__PICKEDSET2, material="Concrete C30/37"
  *solidsection, elset=ASSEMBLY_BLOCK-2-LIN-1-2-LIN-4-1__PICKEDSET2, material="Concrete C30/37"
  *solidsection, elset=ASSEMBLY_BLOCK-2-LIN-1-2-LIN-5-1__PICKEDSET2, material="Concrete C30/37"
  *solidsection, elset=ASSEMBLY_BLOCK-2-LIN-1-2-LIN-6-1__PICKEDSET2, material="Concrete C30/37"
  *solidsection, elset=ASSEMBLY_BLOCK-2-LIN-1-2-LIN-7-1__PICKEDSET2, material="Concrete C30/37"
  *solidsection, elset=ASSEMBLY_BLOCK-2-LIN-1-2-LIN-8-1__PICKEDSET2, material="Concrete C30/37"
  *solidsection, elset=ASSEMBLY_BLOCK-2-LIN-1-2-LIN-9-1__PICKEDSET2, material="Concrete C30/37"
  *solidsection, elset=ASSEMBLY_BLOCK-2-LIN-1-2-LIN-10-1__PICKEDSET2, material="Concrete C30/37"
  *solidsection, elset=ASSEMBLY_BLOCK-2-LIN-1-2-LIN-11-1__PICKEDSET2, material="Concrete C30/37"
  *solidsection, elset=ASSEMBLY_BLOCK-2-LIN-1-8-LIN-2-1-LIN--LIN-2-1-3__PICKEDSET2, material="Concrete C30/37"
  *solidsection, elset=ASSEMBLY_BLOCK-2-LIN-1-8-LIN-2-1-LIN--LIN-3-1-3__PICKEDSET2, material="Concrete C30/37"
  *solidsection, elset=ASSEMBLY_BLOCK-2-LIN-1-8-LIN-2-1-LIN--LIN-4-1-3__PICKEDSET2, material="Concrete C30/37"
  *solidsection, elset=ASSEMBLY_BLOCK-2-LIN-1-8-LIN-2-1-LIN--LIN-5-1-3__PICKEDSET2, material="Concrete C30/37"
  *solidsection, elset=ASSEMBLY_BLOCK-2-LIN-1-8-LIN-2-1-LIN--LIN-6-1-3__PICKEDSET2, material="Concrete C30/37"
  *solidsection, elset=ASSEMBLY_BLOCK-2-LIN-1-8-LIN-2-1-LIN--LIN-7-1-3__PICKEDSET2, material="Concrete C30/37"
  *solidsection, elset=ASSEMBLY_BLOCK-2-LIN-1-8-LIN-2-1-LIN--LIN-8-1-3__PICKEDSET2, material="Concrete C30/37"
  *solidsection, elset=ASSEMBLY_BLOCK-2-LIN-1-8-LIN-2-1-LIN--LIN-9-1-3__PICKEDSET2, material="Concrete C30/37"
  *solidsection, elset=ASSEMBLY_BLOCK-2-LIN-1-8-LIN-2-1-LIN-LIN-10-1-3__PICKEDSET2, material="Concrete C30/37"
  *solidsection, elset=ASSEMBLY_BLOCK-2-LIN-1-8-LIN-2-1-LIN-LIN-11-1-3__PICKEDSET2, material="Concrete C30/37"
  *solidsection, elset=ASSEMBLY_BLOCK-2-LIN-1-4-LIN-2-1__PICKEDSET2, material="Concrete C30/37"
  *solidsection, elset=ASSEMBLY_BLOCK-2-LIN-1-4-LIN-3-1__PICKEDSET2, material="Concrete C30/37"
  *solidsection, elset=ASSEMBLY_BLOCK-2-LIN-1-4-LIN-4-1__PICKEDSET2, material="Concrete C30/37"
  *solidsection, elset=ASSEMBLY_BLOCK-2-LIN-1-4-LIN-5-1__PICKEDSET2, material="Concrete C30/37"
  *solidsection, elset=ASSEMBLY_BLOCK-2-LIN-1-4-LIN-6-1__PICKEDSET2, material="Concrete C30/37"
  *solidsection, elset=ASSEMBLY_BLOCK-2-LIN-1-4-LIN-7-1__PICKEDSET2, material="Concrete C30/37"
  *solidsection, elset=ASSEMBLY_BLOCK-2-LIN-1-4-LIN-8-1__PICKEDSET2, material="Concrete C30/37"
  *solidsection, elset=ASSEMBLY_BLOCK-2-LIN-1-4-LIN-9-1__PICKEDSET2, material="Concrete C30/37"
  *solidsection, elset=ASSEMBLY_BLOCK-2-LIN-1-4-LIN-10-1__PICKEDSET2, material="Concrete C30/37"
  *solidsection, elset=ASSEMBLY_BLOCK-2-LIN-1-4-LIN-11-1__PICKEDSET2, material="Concrete C30/37"
  *solidsection, elset=ASSEMBLY_BLOCK-2-LIN-1-8-LIN-2-1-LIN--LIN-2-1-5__PICKEDSET2, material="Concrete C30/37"
  *solidsection, elset=ASSEMBLY_BLOCK-2-LIN-1-8-LIN-2-1-LIN--LIN-3-1-5__PICKEDSET2, material="Concrete C30/37"
  *solidsection, elset=ASSEMBLY_BLOCK-2-LIN-1-8-LIN-2-1-LIN--LIN-4-1-5__PICKEDSET2, material="Concrete C30/37"
  *solidsection, elset=ASSEMBLY_BLOCK-2-LIN-1-8-LIN-2-1-LIN--LIN-5-1-5__PICKEDSET2, material="Concrete C30/37"
  *solidsection, elset=ASSEMBLY_BLOCK-2-LIN-1-8-LIN-2-1-LIN--LIN-6-1-5__PICKEDSET2, material="Concrete C30/37"
  *solidsection, elset=ASSEMBLY_BLOCK-2-LIN-1-8-LIN-2-1-LIN--LIN-7-1-5__PICKEDSET2, material="Concrete C30/37"
  *solidsection, elset=ASSEMBLY_BLOCK-2-LIN-1-8-LIN-2-1-LIN--LIN-8-1-5__PICKEDSET2, material="Concrete C30/37"
  *solidsection, elset=ASSEMBLY_BLOCK-2-LIN-1-8-LIN-2-1-LIN--LIN-9-1-5__PICKEDSET2, material="Concrete C30/37"
  *solidsection, elset=ASSEMBLY_BLOCK-2-LIN-1-8-LIN-2-1-LIN-LIN-10-1-5__PICKEDSET2, material="Concrete C30/37"
  *solidsection, elset=ASSEMBLY_BLOCK-2-LIN-1-8-LIN-2-1-LIN-LIN-11-1-5__PICKEDSET2, material="Concrete C30/37"
  *solidsection, elset=ASSEMBLY_BLOCK-2-LIN-1-6-LIN-2-1__PICKEDSET2, material="Concrete C30/37"
  *solidsection, elset=ASSEMBLY_BLOCK-2-LIN-1-6-LIN-3-1__PICKEDSET2, material="Concrete C30/37"
  *solidsection, elset=ASSEMBLY_BLOCK-2-LIN-1-6-LIN-4-1__PICKEDSET2, material="Concrete C30/37"
  *solidsection, elset=ASSEMBLY_BLOCK-2-LIN-1-6-LIN-5-1__PICKEDSET2, material="Concrete C30/37"
  *solidsection, elset=ASSEMBLY_BLOCK-2-LIN-1-6-LIN-6-1__PICKEDSET2, material="Concrete C30/37"
  *solidsection, elset=ASSEMBLY_BLOCK-2-LIN-1-6-LIN-7-1__PICKEDSET2, material="Concrete C30/37"
  *solidsection, elset=ASSEMBLY_BLOCK-2-LIN-1-6-LIN-8-1__PICKEDSET2, material="Concrete C30/37"
  *solidsection, elset=ASSEMBLY_BLOCK-2-LIN-1-6-LIN-9-1__PICKEDSET2, material="Concrete C30/37"
  *solidsection, elset=ASSEMBLY_BLOCK-2-LIN-1-6-LIN-10-1__PICKEDSET2, material="Concrete C30/37"
  *solidsection, elset=ASSEMBLY_BLOCK-2-LIN-1-6-LIN-11-1__PICKEDSET2, material="Concrete C30/37"
  *solidsection, elset=ASSEMBLY_BLOCK-2-LIN-1-8-LIN-2-1-LIN--LIN-2-1-7__PICKEDSET2, material="Concrete C30/37"
  *solidsection, elset=ASSEMBLY_BLOCK-2-LIN-1-8-LIN-2-1-LIN--LIN-3-1-7__PICKEDSET2, material="Concrete C30/37"
  *solidsection, elset=ASSEMBLY_BLOCK-2-LIN-1-8-LIN-2-1-LIN--LIN-4-1-7__PICKEDSET2, material="Concrete C30/37"
  *solidsection, elset=ASSEMBLY_BLOCK-2-LIN-1-8-LIN-2-1-LIN--LIN-5-1-7__PICKEDSET2, material="Concrete C30/37"
  *solidsection, elset=ASSEMBLY_BLOCK-2-LIN-1-8-LIN-2-1-LIN--LIN-6-1-7__PICKEDSET2, material="Concrete C30/37"
  *solidsection, elset=ASSEMBLY_BLOCK-2-LIN-1-8-LIN-2-1-LIN--LIN-7-1-7__PICKEDSET2, material="Concrete C30/37"
  *solidsection, elset=ASSEMBLY_BLOCK-2-LIN-1-8-LIN-2-1-LIN--LIN-8-1-7__PICKEDSET2, material="Concrete C30/37"
  *solidsection, elset=ASSEMBLY_BLOCK-2-LIN-1-8-LIN-2-1-LIN--LIN-9-1-7__PICKEDSET2, material="Concrete C30/37"
  *solidsection, elset=ASSEMBLY_BLOCK-2-LIN-1-8-LIN-2-1-LIN-LIN-10-1-7__PICKEDSET2, material="Concrete C30/37"
  *solidsection, elset=ASSEMBLY_BLOCK-2-LIN-1-8-LIN-2-1-LIN-LIN-11-1-7__PICKEDSET2, material="Concrete C30/37"
  *solidsection, elset=ASSEMBLY_BLOCK-2-LIN-1-8-LIN-2-1-1__PICKEDSET2, material="Concrete C30/37"
  *solidsection, elset=ASSEMBLY_BLOCK-2-LIN-1-8-LIN-3-1__PICKEDSET2, material="Concrete C30/37"
  *solidsection, elset=ASSEMBLY_BLOCK-2-LIN-1-8-LIN-4-1__PICKEDSET2, material="Concrete C30/37"
  *solidsection, elset=ASSEMBLY_BLOCK-2-LIN-1-8-LIN-5-1__PICKEDSET2, material="Concrete C30/37"
  *solidsection, elset=ASSEMBLY_BLOCK-2-LIN-1-8-LIN-6-1__PICKEDSET2, material="Concrete C30/37"
  *solidsection, elset=ASSEMBLY_BLOCK-2-LIN-1-8-LIN-7-1__PICKEDSET2, material="Concrete C30/37"
  *solidsection, elset=ASSEMBLY_BLOCK-2-LIN-1-8-LIN-8-1__PICKEDSET2, material="Concrete C30/37"
  *solidsection, elset=ASSEMBLY_BLOCK-2-LIN-1-8-LIN-9-1__PICKEDSET2, material="Concrete C30/37"
  *solidsection, elset=ASSEMBLY_BLOCK-2-LIN-1-8-LIN-10-1__PICKEDSET2, material="Concrete C30/37"
  *solidsection, elset=ASSEMBLY_BLOCK-2-LIN-1-8-LIN-11-1__PICKEDSET2, material="Concrete C30/37"
  *solidsection, elset=ASSEMBLY_HALFBLOCK-1-LIN-1-2-LIN-2-1__PICKEDSET2, material="Concrete C30/37"
  *solidsection, elset=ASSEMBLY_HALFBLOCK-1-LIN-1-2-LIN-3-1__PICKEDSET2, material="Concrete C30/37"
  *solidsection, elset=ASSEMBLY_HALFBLOCK-1-LIN-1-2-LIN-4-1__PICKEDSET2, material="Concrete C30/37"
  *solidsection, elset=ASSEMBLY_HALFBLOCK-1-LIN-1-2-LIN-5-1__PICKEDSET2, material="Concrete C30/37"
  *solidsection, elset=ASSEMBLY_HALFBLOCK-1-LIN-1-2-LIN-6-1__PICKEDSET2, material="Concrete C30/37"
  *solidsection, elset=ASSEMBLY_HALFBLOCK-1-LIN-1-2-LIN-7-1__PICKEDSET2, material="Concrete C30/37"
  *solidsection, elset=ASSEMBLY_HALFBLOCK-1-LIN-1-2-LIN-8-1__PICKEDSET2, material="Concrete C30/37"
  *solidsection, elset=ASSEMBLY_HALFBLOCK-1-LIN-1-2-LIN-9-1__PICKEDSET2, material="Concrete C30/37"
  *solidsection, elset=ASSEMBLY_HALFBLOCK-1-LIN-1-2-LIN-10-1__PICKEDSET2, material="Concrete C30/37"
  *solidsection, elset=ASSEMBLY_HALFBLOCK-1-LIN-1-2-LIN-11-1__PICKEDSET2, material="Concrete C30/37"
  *solidsection, elset=ASSEMBLY_BLOCK-2-LIN-1-8-LIN-2-1-LIN--LIN-2-1__PICKEDSET2, material="Concrete C30/37"
  *solidsection, elset=ASSEMBLY_BLOCK-2-LIN-1-8-LIN-2-1-LIN--LIN-3-1__PICKEDSET2, material="Concrete C30/37"
  *solidsection, elset=ASSEMBLY_BLOCK-2-LIN-1-8-LIN-2-1-LIN--LIN-4-1__PICKEDSET2, material="Concrete C30/37"
  *solidsection, elset=ASSEMBLY_BLOCK-2-LIN-1-8-LIN-2-1-LIN--LIN-5-1__PICKEDSET2, material="Concrete C30/37"
  *solidsection, elset=ASSEMBLY_BLOCK-2-LIN-1-8-LIN-2-1-LIN--LIN-6-1__PICKEDSET2, material="Concrete C30/37"
  *solidsection, elset=ASSEMBLY_BLOCK-2-LIN-1-8-LIN-2-1-LIN--LIN-7-1__PICKEDSET2, material="Concrete C30/37"
  *solidsection, elset=ASSEMBLY_BLOCK-2-LIN-1-8-LIN-2-1-LIN--LIN-8-1__PICKEDSET2, material="Concrete C30/37"
  *solidsection, elset=ASSEMBLY_BLOCK-2-LIN-1-8-LIN-2-1-LIN--LIN-9-1__PICKEDSET2, material="Concrete C30/37"
  *solidsection, elset=ASSEMBLY_BLOCK-2-LIN-1-8-LIN-2-1-LIN-LIN-10-1__PICKEDSET2, material="Concrete C30/37"
  *solidsection, elset=ASSEMBLY_BLOCK-2-LIN-1-8-LIN-2-1-LIN-LIN-11-1__PICKEDSET2, material="Concrete C30/37"
  *solidsection, elset=ASSEMBLY_BLOCK-2-LIN-1-8-LIN-2-1-LIN--LIN-2-1-2__PICKEDSET2, material="Concrete C30/37"
  *solidsection, elset=ASSEMBLY_BLOCK-2-LIN-1-8-LIN-2-1-LIN--LIN-3-1-2__PICKEDSET2, material="Concrete C30/37"
  *solidsection, elset=ASSEMBLY_BLOCK-2-LIN-1-8-LIN-2-1-LIN--LIN-4-1-2__PICKEDSET2, material="Concrete C30/37"
  *solidsection, elset=ASSEMBLY_BLOCK-2-LIN-1-8-LIN-2-1-LIN--LIN-5-1-2__PICKEDSET2, material="Concrete C30/37"
  *solidsection, elset=ASSEMBLY_BLOCK-2-LIN-1-8-LIN-2-1-LIN--LIN-6-1-2__PICKEDSET2, material="Concrete C30/37"
  *solidsection, elset=ASSEMBLY_BLOCK-2-LIN-1-8-LIN-2-1-LIN--LIN-7-1-2__PICKEDSET2, material="Concrete C30/37"
  *solidsection, elset=ASSEMBLY_BLOCK-2-LIN-1-8-LIN-2-1-LIN--LIN-8-1-2__PICKEDSET2, material="Concrete C30/37"
  *solidsection, elset=ASSEMBLY_BLOCK-2-LIN-1-8-LIN-2-1-LIN--LIN-9-1-2__PICKEDSET2, material="Concrete C30/37"
  *solidsection, elset=ASSEMBLY_BLOCK-2-LIN-1-8-LIN-2-1-LIN-LIN-10-1-2__PICKEDSET2, material="Concrete C30/37"
  *solidsection, elset=ASSEMBLY_BLOCK-2-LIN-1-8-LIN-2-1-LIN-LIN-11-1-2__PICKEDSET2, material="Concrete C30/37"
  *solidsection, elset=ASSEMBLY_BLOCK-2-LIN-1-3-LIN-2-1__PICKEDSET2, material="Concrete C30/37"
  *solidsection, elset=ASSEMBLY_BLOCK-2-LIN-1-3-LIN-3-1__PICKEDSET2, material="Concrete C30/37"
  *solidsection, elset=ASSEMBLY_BLOCK-2-LIN-1-3-LIN-4-1__PICKEDSET2, material="Concrete C30/37"
  *solidsection, elset=ASSEMBLY_BLOCK-2-LIN-1-3-LIN-5-1__PICKEDSET2, material="Concrete C30/37"
  *solidsection, elset=ASSEMBLY_BLOCK-2-LIN-1-3-LIN-6-1__PICKEDSET2, material="Concrete C30/37"
  *solidsection, elset=ASSEMBLY_BLOCK-2-LIN-1-3-LIN-7-1__PICKEDSET2, material="Concrete C30/37"
  *solidsection, elset=ASSEMBLY_BLOCK-2-LIN-1-3-LIN-8-1__PICKEDSET2, material="Concrete C30/37"
  *solidsection, elset=ASSEMBLY_BLOCK-2-LIN-1-3-LIN-9-1__PICKEDSET2, material="Concrete C30/37"
  *solidsection, elset=ASSEMBLY_BLOCK-2-LIN-1-3-LIN-10-1__PICKEDSET2, material="Concrete C30/37"
  *solidsection, elset=ASSEMBLY_BLOCK-2-LIN-1-3-LIN-11-1__PICKEDSET2, material="Concrete C30/37"
  *solidsection, elset=ASSEMBLY_BLOCK-2-LIN-1-8-LIN-2-1-LIN--LIN-2-1-4__PICKEDSET2, material="Concrete C30/37"
  *solidsection, elset=ASSEMBLY_BLOCK-2-LIN-1-8-LIN-2-1-LIN--LIN-3-1-4__PICKEDSET2, material="Concrete C30/37"
  *solidsection, elset=ASSEMBLY_BLOCK-2-LIN-1-8-LIN-2-1-LIN--LIN-4-1-4__PICKEDSET2, material="Concrete C30/37"
  *solidsection, elset=ASSEMBLY_BLOCK-2-LIN-1-8-LIN-2-1-LIN--LIN-5-1-4__PICKEDSET2, material="Concrete C30/37"
  *solidsection, elset=ASSEMBLY_BLOCK-2-LIN-1-8-LIN-2-1-LIN--LIN-6-1-4__PICKEDSET2, material="Concrete C30/37"
  *solidsection, elset=ASSEMBLY_BLOCK-2-LIN-1-8-LIN-2-1-LIN--LIN-7-1-4__PICKEDSET2, material="Concrete C30/37"
  *solidsection, elset=ASSEMBLY_BLOCK-2-LIN-1-8-LIN-2-1-LIN--LIN-8-1-4__PICKEDSET2, material="Concrete C30/37"
  *solidsection, elset=ASSEMBLY_BLOCK-2-LIN-1-8-LIN-2-1-LIN--LIN-9-1-4__PICKEDSET2, material="Concrete C30/37"
  *solidsection, elset=ASSEMBLY_BLOCK-2-LIN-1-8-LIN-2-1-LIN-LIN-10-1-4__PICKEDSET2, material="Concrete C30/37"
  *solidsection, elset=ASSEMBLY_BLOCK-2-LIN-1-8-LIN-2-1-LIN-LIN-11-1-4__PICKEDSET2, material="Concrete C30/37"
  *solidsection, elset=ASSEMBLY_BLOCK-2-LIN-1-8-LIN-2-1-LIN-2-1__PICKEDSET2, material="Concrete C30/37"
  *solidsection, elset=ASSEMBLY_BLOCK-2-LIN-1-8-LIN-2-1-LIN-3-1__PICKEDSET2, material="Concrete C30/37"
  *solidsection, elset=ASSEMBLY_BLOCK-2-LIN-1-8-LIN-2-1-LIN-4-1__PICKEDSET2, material="Concrete C30/37"
  *solidsection, elset=ASSEMBLY_BLOCK-2-LIN-1-8-LIN-2-1-LIN-5-1__PICKEDSET2, material="Concrete C30/37"
  *solidsection, elset=ASSEMBLY_BLOCK-2-LIN-1-8-LIN-2-1-LIN-6-1__PICKEDSET2, material="Concrete C30/37"
  *solidsection, elset=ASSEMBLY_BLOCK-2-LIN-1-8-LIN-2-1-LIN-7-1__PICKEDSET2, material="Concrete C30/37"
  *solidsection, elset=ASSEMBLY_BLOCK-2-LIN-1-8-LIN-2-1-LIN-8-1__PICKEDSET2, material="Concrete C30/37"
  *solidsection, elset=ASSEMBLY_BLOCK-2-LIN-1-8-LIN-2-1-LIN-9-1__PICKEDSET2, material="Concrete C30/37"
  *solidsection, elset=ASSEMBLY_BLOCK-2-LIN-1-8-LIN-2-1-LIN-10-1__PICKEDSET2, material="Concrete C30/37"
  *solidsection, elset=ASSEMBLY_BLOCK-2-LIN-1-8-LIN-2-1-LIN-11-1__PICKEDSET2, material="Concrete C30/37"
  *solidsection, elset=ASSEMBLY_BLOCK-2-LIN-1-5-LIN-2-1__PICKEDSET2, material="Concrete C30/37"
  *solidsection, elset=ASSEMBLY_BLOCK-2-LIN-1-5-LIN-3-1__PICKEDSET2, material="Concrete C30/37"
  *solidsection, elset=ASSEMBLY_BLOCK-2-LIN-1-5-LIN-4-1__PICKEDSET2, material="Concrete C30/37"
  *solidsection, elset=ASSEMBLY_BLOCK-2-LIN-1-5-LIN-5-1__PICKEDSET2, material="Concrete C30/37"
  *solidsection, elset=ASSEMBLY_BLOCK-2-LIN-1-5-LIN-6-1__PICKEDSET2, material="Concrete C30/37"
  *solidsection, elset=ASSEMBLY_BLOCK-2-LIN-1-5-LIN-7-1__PICKEDSET2, material="Concrete C30/37"
  *solidsection, elset=ASSEMBLY_BLOCK-2-LIN-1-5-LIN-8-1__PICKEDSET2, material="Concrete C30/37"
  *solidsection, elset=ASSEMBLY_BLOCK-2-LIN-1-5-LIN-9-1__PICKEDSET2, material="Concrete C30/37"
  *solidsection, elset=ASSEMBLY_BLOCK-2-LIN-1-5-LIN-10-1__PICKEDSET2, material="Concrete C30/37"
  *solidsection, elset=ASSEMBLY_BLOCK-2-LIN-1-5-LIN-11-1__PICKEDSET2, material="Concrete C30/37"
  *solidsection, elset=ASSEMBLY_BLOCK-2-LIN-1-8-LIN-2-1-LIN--LIN-2-1-6__PICKEDSET2, material="Concrete C30/37"
  *solidsection, elset=ASSEMBLY_BLOCK-2-LIN-1-8-LIN-2-1-LIN--LIN-3-1-6__PICKEDSET2, material="Concrete C30/37"
  *solidsection, elset=ASSEMBLY_BLOCK-2-LIN-1-8-LIN-2-1-LIN--LIN-4-1-6__PICKEDSET2, material="Concrete C30/37"
  *solidsection, elset=ASSEMBLY_BLOCK-2-LIN-1-8-LIN-2-1-LIN--LIN-5-1-6__PICKEDSET2, material="Concrete C30/37"
  *solidsection, elset=ASSEMBLY_BLOCK-2-LIN-1-8-LIN-2-1-LIN--LIN-6-1-6__PICKEDSET2, material="Concrete C30/37"
  *solidsection, elset=ASSEMBLY_BLOCK-2-LIN-1-8-LIN-2-1-LIN--LIN-7-1-6__PICKEDSET2, material="Concrete C30/37"
  *solidsection, elset=ASSEMBLY_BLOCK-2-LIN-1-8-LIN-2-1-LIN--LIN-8-1-6__PICKEDSET2, material="Concrete C30/37"
  *solidsection, elset=ASSEMBLY_BLOCK-2-LIN-1-8-LIN-2-1-LIN--LIN-9-1-6__PICKEDSET2, material="Concrete C30/37"
  *solidsection, elset=ASSEMBLY_BLOCK-2-LIN-1-8-LIN-2-1-LIN-LIN-10-1-6__PICKEDSET2, material="Concrete C30/37"
  *solidsection, elset=ASSEMBLY_BLOCK-2-LIN-1-8-LIN-2-1-LIN-LIN-11-1-6__PICKEDSET2, material="Concrete C30/37"
  *solidsection, elset=ASSEMBLY_BLOCK-2-LIN-1-7-LIN-2-1__PICKEDSET2, material="Concrete C30/37"
  *solidsection, elset=ASSEMBLY_BLOCK-2-LIN-1-7-LIN-3-1__PICKEDSET2, material="Concrete C30/37"
  *solidsection, elset=ASSEMBLY_BLOCK-2-LIN-1-7-LIN-4-1__PICKEDSET2, material="Concrete C30/37"
  *solidsection, elset=ASSEMBLY_BLOCK-2-LIN-1-7-LIN-5-1__PICKEDSET2, material="Concrete C30/37"
  *solidsection, elset=ASSEMBLY_BLOCK-2-LIN-1-7-LIN-6-1__PICKEDSET2, material="Concrete C30/37"
  *solidsection, elset=ASSEMBLY_BLOCK-2-LIN-1-7-LIN-7-1__PICKEDSET2, material="Concrete C30/37"
  *solidsection, elset=ASSEMBLY_BLOCK-2-LIN-1-7-LIN-8-1__PICKEDSET2, material="Concrete C30/37"
  *solidsection, elset=ASSEMBLY_BLOCK-2-LIN-1-7-LIN-9-1__PICKEDSET2, material="Concrete C30/37"
  *solidsection, elset=ASSEMBLY_BLOCK-2-LIN-1-7-LIN-10-1__PICKEDSET2, material="Concrete C30/37"
  *solidsection, elset=ASSEMBLY_BLOCK-2-LIN-1-7-LIN-11-1__PICKEDSET2, material="Concrete C30/37"
  *solidsection, elset=ASSEMBLY_HALFBLOCK-1__PICKEDSET2, material="Concrete C30/37"
  *solidsection, elset=ASSEMBLY_BLOCK-2__PICKEDSET2, material="Concrete C30/37"
  *solidsection, elset=ASSEMBLY_BLOCK-2-LIN-1-2__PICKEDSET2, material="Concrete C30/37"
  *solidsection, elset=ASSEMBLY_BLOCK-2-LIN-1-3__PICKEDSET2, material="Concrete C30/37"
  *solidsection, elset=ASSEMBLY_BLOCK-2-LIN-1-4__PICKEDSET2, material="Concrete C30/37"
  *solidsection, elset=ASSEMBLY_BLOCK-2-LIN-1-5__PICKEDSET2, material="Concrete C30/37"
  *solidsection, elset=ASSEMBLY_BLOCK-2-LIN-1-6__PICKEDSET2, material="Concrete C30/37"
  *solidsection, elset=ASSEMBLY_BLOCK-2-LIN-1-7__PICKEDSET2, material="Concrete C30/37"
  *solidsection, elset=ASSEMBLY_BLOCK-2-LIN-1-8__PICKEDSET2, material="Concrete C30/37"
  *solidsection, elset=ASSEMBLY_HALFBLOCK-1-LIN-1-2__PICKEDSET2, material="Concrete C30/37"
  *solidsection, elset=ASSEMBLY_BLOCK-2-LIN-1-8-LIN-2-1__PICKEDSET2, material="Concrete C30/37"
  *solidsection, elset=ASSEMBLY_BLOCK-2-LIN-1-8-LIN-2-1-LIN-1-2__PICKEDSET2, material="Concrete C30/37"
  *solidsection, elset=ASSEMBLY_BLOCK-2-LIN-1-8-LIN-2-1-LIN-1-3__PICKEDSET2, material="Concrete C30/37"
  *solidsection, elset=ASSEMBLY_BLOCK-2-LIN-1-8-LIN-2-1-LIN-1-4__PICKEDSET2, material="Concrete C30/37"
  *solidsection, elset=ASSEMBLY_BLOCK-2-LIN-1-8-LIN-2-1-LIN-1-5__PICKEDSET2, material="Concrete C30/37"
  *solidsection, elset=ASSEMBLY_BLOCK-2-LIN-1-8-LIN-2-1-LIN-1-6__PICKEDSET2, material="Concrete C30/37"
  *solidsection, elset=ASSEMBLY_BLOCK-2-LIN-1-8-LIN-2-1-LIN-1-7__PICKEDSET2, material="Concrete C30/37"
  *solidsection, elset=ASSEMBLY_BLOCK-2-LIN-1-8-LIN-2-1-LIN-1-8__PICKEDSET2, material="Concrete C30/37"
  *solidsection, elset=ASSEMBLY_BLOCK-2-LIN-1-8-LIN-2-1-LIN-1-9__PICKEDSET2, material="Concrete C30/37"
  *solidsection, elset=ASSEMBLY_HALFBLOCK-1-LIN-2-1__PICKEDSET2, material="Concrete C30/37"
  *solidsection, elset=ASSEMBLY_HALFBLOCK-1-LIN-3-1__PICKEDSET2, material="Concrete C30/37"
  *solidsection, elset=ASSEMBLY_HALFBLOCK-1-LIN-4-1__PICKEDSET2, material="Concrete C30/37"
  *solidsection, elset=ASSEMBLY_HALFBLOCK-1-LIN-5-1__PICKEDSET2, material="Concrete C30/37"
  *solidsection, elset=ASSEMBLY_HALFBLOCK-1-LIN-6-1__PICKEDSET2, material="Concrete C30/37"
  *solidsection, elset=ASSEMBLY_HALFBLOCK-1-LIN-7-1__PICKEDSET2, material="Concrete C30/37"
  *solidsection, elset=ASSEMBLY_HALFBLOCK-1-LIN-8-1__PICKEDSET2, material="Concrete C30/37"
  *solidsection, elset=ASSEMBLY_HALFBLOCK-1-LIN-9-1__PICKEDSET2, material="Concrete C30/37"
  *solidsection, elset=ASSEMBLY_HALFBLOCK-1-LIN-10-1__PICKEDSET2, material="Concrete C30/37"
  *solidsection, elset=ASSEMBLY_HALFBLOCK-1-LIN-11-1__PICKEDSET2, material="Concrete C30/37"
  *solidsection, elset=ASSEMBLY_BLOCK-2-LIN-2-1__PICKEDSET2, material="Concrete C30/37"
  *solidsection, elset=ASSEMBLY_BLOCK-2-LIN-3-1__PICKEDSET2, material="Concrete C30/37"
  *solidsection, elset=ASSEMBLY_BLOCK-2-LIN-4-1__PICKEDSET2, material="Concrete C30/37"
  *solidsection, elset=ASSEMBLY_BLOCK-2-LIN-5-1__PICKEDSET2, material="Concrete C30/37"
  *solidsection, elset=ASSEMBLY_BLOCK-2-LIN-6-1__PICKEDSET2, material="Concrete C30/37"
  *solidsection, elset=ASSEMBLY_BLOCK-2-LIN-7-1__PICKEDSET2, material="Concrete C30/37"
  *solidsection, elset=ASSEMBLY_BLOCK-2-LIN-8-1__PICKEDSET2, material="Concrete C30/37"
  *solidsection, elset=ASSEMBLY_BLOCK-2-LIN-9-1__PICKEDSET2, material="Concrete C30/37"
  *solidsection, elset=ASSEMBLY_BLOCK-2-LIN-10-1__PICKEDSET2, material="Concrete C30/37"
  *solidsection, elset=ASSEMBLY_BLOCK-2-LIN-11-1__PICKEDSET2, material="Concrete C30/37"
  *solidsection, elset=ASSEMBLY_BLOCK-2-LIN-1-8-LIN-2-1-LIN--LIN-2-1-1__PICKEDSET2, material="Concrete C30/37"
  *solidsection, elset=ASSEMBLY_BLOCK-2-LIN-1-8-LIN-2-1-LIN--LIN-3-1-1__PICKEDSET2, material="Concrete C30/37"
  *solidsection, elset=ASSEMBLY_BLOCK-2-LIN-1-8-LIN-2-1-LIN--LIN-4-1-1__PICKEDSET2, material="Concrete C30/37"
  *solidsection, elset=ASSEMBLY_BLOCK-2-LIN-1-8-LIN-2-1-LIN--LIN-5-1-1__PICKEDSET2, material="Concrete C30/37"
  *solidsection, elset=ASSEMBLY_BLOCK-2-LIN-1-8-LIN-2-1-LIN--LIN-6-1-1__PICKEDSET2, material="Concrete C30/37"
  *solidsection, elset=ASSEMBLY_BLOCK-2-LIN-1-8-LIN-2-1-LIN--LIN-7-1-1__PICKEDSET2, material="Concrete C30/37"
  *solidsection, elset=ASSEMBLY_BLOCK-2-LIN-1-8-LIN-2-1-LIN--LIN-8-1-1__PICKEDSET2, material="Concrete C30/37"
  *solidsection, elset=ASSEMBLY_BLOCK-2-LIN-1-8-LIN-2-1-LIN--LIN-9-1-1__PICKEDSET2, material="Concrete C30/37"
  *solidsection, elset=ASSEMBLY_BLOCK-2-LIN-1-8-LIN-2-1-LIN-LIN-10-1-1__PICKEDSET2, material="Concrete C30/37"
  *solidsection, elset=ASSEMBLY_BLOCK-2-LIN-1-8-LIN-2-1-LIN-LIN-11-1-1__PICKEDSET2, material="Concrete C30/37"
  *solidsection, elset=ASSEMBLY_BLOCK-2-LIN-1-2-LIN-2-1__PICKEDSET2, material="Concrete C30/37"
  *solidsection, elset=ASSEMBLY_BLOCK-2-LIN-1-2-LIN-3-1__PICKEDSET2, material="Concrete C30/37"
  *solidsection, elset=ASSEMBLY_BLOCK-2-LIN-1-2-LIN-4-1__PICKEDSET2, material="Concrete C30/37"
  *solidsection, elset=ASSEMBLY_BLOCK-2-LIN-1-2-LIN-5-1__PICKEDSET2, material="Concrete C30/37"
  *solidsection, elset=ASSEMBLY_BLOCK-2-LIN-1-2-LIN-6-1__PICKEDSET2, material="Concrete C30/37"
  *solidsection, elset=ASSEMBLY_BLOCK-2-LIN-1-2-LIN-7-1__PICKEDSET2, material="Concrete C30/37"
  *solidsection, elset=ASSEMBLY_BLOCK-2-LIN-1-2-LIN-8-1__PICKEDSET2, material="Concrete C30/37"
  *solidsection, elset=ASSEMBLY_BLOCK-2-LIN-1-2-LIN-9-1__PICKEDSET2, material="Concrete C30/37"
  *solidsection, elset=ASSEMBLY_BLOCK-2-LIN-1-2-LIN-10-1__PICKEDSET2, material="Concrete C30/37"
  *solidsection, elset=ASSEMBLY_BLOCK-2-LIN-1-2-LIN-11-1__PICKEDSET2, material="Concrete C30/37"
  *solidsection, elset=ASSEMBLY_BLOCK-2-LIN-1-8-LIN-2-1-LIN--LIN-2-1-3__PICKEDSET2, material="Concrete C30/37"
  *solidsection, elset=ASSEMBLY_BLOCK-2-LIN-1-8-LIN-2-1-LIN--LIN-3-1-3__PICKEDSET2, material="Concrete C30/37"
  *solidsection, elset=ASSEMBLY_BLOCK-2-LIN-1-8-LIN-2-1-LIN--LIN-4-1-3__PICKEDSET2, material="Concrete C30/37"
  *solidsection, elset=ASSEMBLY_BLOCK-2-LIN-1-8-LIN-2-1-LIN--LIN-5-1-3__PICKEDSET2, material="Concrete C30/37"
  *solidsection, elset=ASSEMBLY_BLOCK-2-LIN-1-8-LIN-2-1-LIN--LIN-6-1-3__PICKEDSET2, material="Concrete C30/37"
  *solidsection, elset=ASSEMBLY_BLOCK-2-LIN-1-8-LIN-2-1-LIN--LIN-7-1-3__PICKEDSET2, material="Concrete C30/37"
  *solidsection, elset=ASSEMBLY_BLOCK-2-LIN-1-8-LIN-2-1-LIN--LIN-8-1-3__PICKEDSET2, material="Concrete C30/37"
  *solidsection, elset=ASSEMBLY_BLOCK-2-LIN-1-8-LIN-2-1-LIN--LIN-9-1-3__PICKEDSET2, material="Concrete C30/37"
  *solidsection, elset=ASSEMBLY_BLOCK-2-LIN-1-8-LIN-2-1-LIN-LIN-10-1-3__PICKEDSET2, material="Concrete C30/37"
  *solidsection, elset=ASSEMBLY_BLOCK-2-LIN-1-8-LIN-2-1-LIN-LIN-11-1-3__PICKEDSET2, material="Concrete C30/37"
  *solidsection, elset=ASSEMBLY_BLOCK-2-LIN-1-4-LIN-2-1__PICKEDSET2, material="Concrete C30/37"
  *solidsection, elset=ASSEMBLY_BLOCK-2-LIN-1-4-LIN-3-1__PICKEDSET2, material="Concrete C30/37"
  *solidsection, elset=ASSEMBLY_BLOCK-2-LIN-1-4-LIN-4-1__PICKEDSET2, material="Concrete C30/37"
  *solidsection, elset=ASSEMBLY_BLOCK-2-LIN-1-4-LIN-5-1__PICKEDSET2, material="Concrete C30/37"
  *solidsection, elset=ASSEMBLY_BLOCK-2-LIN-1-4-LIN-6-1__PICKEDSET2, material="Concrete C30/37"
  *solidsection, elset=ASSEMBLY_BLOCK-2-LIN-1-4-LIN-7-1__PICKEDSET2, material="Concrete C30/37"
  *solidsection, elset=ASSEMBLY_BLOCK-2-LIN-1-4-LIN-8-1__PICKEDSET2, material="Concrete C30/37"
  *solidsection, elset=ASSEMBLY_BLOCK-2-LIN-1-4-LIN-9-1__PICKEDSET2, material="Concrete C30/37"
  *solidsection, elset=ASSEMBLY_BLOCK-2-LIN-1-4-LIN-10-1__PICKEDSET2, material="Concrete C30/37"
  *solidsection, elset=ASSEMBLY_BLOCK-2-LIN-1-4-LIN-11-1__PICKEDSET2, material="Concrete C30/37"
  *solidsection, elset=ASSEMBLY_BLOCK-2-LIN-1-8-LIN-2-1-LIN--LIN-2-1-5__PICKEDSET2, material="Concrete C30/37"
  *solidsection, elset=ASSEMBLY_BLOCK-2-LIN-1-8-LIN-2-1-LIN--LIN-3-1-5__PICKEDSET2, material="Concrete C30/37"
  *solidsection, elset=ASSEMBLY_BLOCK-2-LIN-1-8-LIN-2-1-LIN--LIN-4-1-5__PICKEDSET2, material="Concrete C30/37"
  *solidsection, elset=ASSEMBLY_BLOCK-2-LIN-1-8-LIN-2-1-LIN--LIN-5-1-5__PICKEDSET2, material="Concrete C30/37"
  *solidsection, elset=ASSEMBLY_BLOCK-2-LIN-1-8-LIN-2-1-LIN--LIN-6-1-5__PICKEDSET2, material="Concrete C30/37"
  *solidsection, elset=ASSEMBLY_BLOCK-2-LIN-1-8-LIN-2-1-LIN--LIN-7-1-5__PICKEDSET2, material="Concrete C30/37"
  *solidsection, elset=ASSEMBLY_BLOCK-2-LIN-1-8-LIN-2-1-LIN--LIN-8-1-5__PICKEDSET2, material="Concrete C30/37"
  *solidsection, elset=ASSEMBLY_BLOCK-2-LIN-1-8-LIN-2-1-LIN--LIN-9-1-5__PICKEDSET2, material="Concrete C30/37"
  *solidsection, elset=ASSEMBLY_BLOCK-2-LIN-1-8-LIN-2-1-LIN-LIN-10-1-5__PICKEDSET2, material="Concrete C30/37"
  *solidsection, elset=ASSEMBLY_BLOCK-2-LIN-1-8-LIN-2-1-LIN-LIN-11-1-5__PICKEDSET2, material="Concrete C30/37"
  *solidsection, elset=ASSEMBLY_BLOCK-2-LIN-1-6-LIN-2-1__PICKEDSET2, material="Concrete C30/37"
  *solidsection, elset=ASSEMBLY_BLOCK-2-LIN-1-6-LIN-3-1__PICKEDSET2, material="Concrete C30/37"
  *solidsection, elset=ASSEMBLY_BLOCK-2-LIN-1-6-LIN-4-1__PICKEDSET2, material="Concrete C30/37"
[...]
  *solidsection, elset=ASSEMBLY_BLOCK-2-LIN-1-8-LIN-6-1__PICKEDSET2, material="Concrete C30/37"
  *solidsection, elset=ASSEMBLY_BLOCK-2-LIN-1-8-LIN-7-1__PICKEDSET2, material="Concrete C30/37"
  *solidsection, elset=ASSEMBLY_BLOCK-2-LIN-1-8-LIN-8-1__PICKEDSET2, material="Concrete C30/37"
  *solidsection, elset=ASSEMBLY_BLOCK-2-LIN-1-8-LIN-9-1__PICKEDSET2, material="Concrete C30/37"
  *solidsection, elset=ASSEMBLY_BLOCK-2-LIN-1-8-LIN-10-1__PICKEDSET2, material="Concrete C30/37"
  *solidsection, elset=ASSEMBLY_BLOCK-2-LIN-1-8-LIN-11-1__PICKEDSET2, material="Concrete C30/37"
  *solidsection, elset=ASSEMBLY_HALFBLOCK-1-LIN-1-2-LIN-2-1__PICKEDSET2, material="Concrete C30/37"
  *solidsection, elset=ASSEMBLY_HALFBLOCK-1-LIN-1-2-LIN-3-1__PICKEDSET2, material="Concrete C30/37"
  *solidsection, elset=ASSEMBLY_HALFBLOCK-1-LIN-1-2-LIN-4-1__PICKEDSET2, material="Concrete C30/37"
  *solidsection, elset=ASSEMBLY_HALFBLOCK-1-LIN-1-2-LIN-5-1__PICKEDSET2, material="Concrete C30/37"
  *solidsection, elset=ASSEMBLY_HALFBLOCK-1-LIN-1-2-LIN-6-1__PICKEDSET2, material="Concrete C30/37"
  *solidsection, elset=ASSEMBLY_HALFBLOCK-1-LIN-1-2-LIN-7-1__PICKEDSET2, material="Concrete C30/37"
  *solidsection, elset=ASSEMBLY_HALFBLOCK-1-LIN-1-2-LIN-8-1__PICKEDSET2, material="Concrete C30/37"
  *solidsection, elset=ASSEMBLY_HALFBLOCK-1-LIN-1-2-LIN-9-1__PICKEDSET2, material="Concrete C30/37"
  *solidsection, elset=ASSEMBLY_HALFBLOCK-1-LIN-1-2-LIN-10-1__PICKEDSET2, material="Concrete C30/37"
  *solidsection, elset=ASSEMBLY_HALFBLOCK-1-LIN-1-2-LIN-11-1__PICKEDSET2, material="Concrete C30/37"
  *solidsection, elset=ASSEMBLY_BLOCK-2-LIN-1-8-LIN-2-1-LIN--LIN-2-1__PICKEDSET2, material="Concrete C30/37"
  *solidsection, elset=ASSEMBLY_BLOCK-2-LIN-1-8-LIN-2-1-LIN--LIN-3-1__PICKEDSET2, material="Concrete C30/37"
  *solidsection, elset=ASSEMBLY_BLOCK-2-LIN-1-8-LIN-2-1-LIN--LIN-4-1__PICKEDSET2, material="Concrete C30/37"
  *solidsection, elset=ASSEMBLY_BLOCK-2-LIN-1-8-LIN-2-1-LIN--LIN-5-1__PICKEDSET2, material="Concrete C30/37"
  *solidsection, elset=ASSEMBLY_BLOCK-2-LIN-1-8-LIN-2-1-LIN--LIN-6-1__PICKEDSET2, material="Concrete C30/37"
  *solidsection, elset=ASSEMBLY_BLOCK-2-LIN-1-8-LIN-2-1-LIN--LIN-7-1__PICKEDSET2, material="Concrete C30/37"
  *solidsection, elset=ASSEMBLY_BLOCK-2-LIN-1-8-LIN-2-1-LIN--LIN-8-1__PICKEDSET2, material="Concrete C30/37"
  *solidsection, elset=ASSEMBLY_BLOCK-2-LIN-1-8-LIN-2-1-LIN--LIN-9-1__PICKEDSET2, material="Concrete C30/37"
  *solidsection, elset=ASSEMBLY_BLOCK-2-LIN-1-8-LIN-2-1-LIN-LIN-10-1__PICKEDSET2, material="Concrete C30/37"
  *solidsection, elset=ASSEMBLY_BLOCK-2-LIN-1-8-LIN-2-1-LIN-LIN-11-1__PICKEDSET2, material="Concrete C30/37"
  *solidsection, elset=ASSEMBLY_BLOCK-2-LIN-1-8-LIN-2-1-LIN--LIN-2-1-2__PICKEDSET2, material="Concrete C30/37"
  *solidsection, elset=ASSEMBLY_BLOCK-2-LIN-1-8-LIN-2-1-LIN--LIN-3-1-2__PICKEDSET2, material="Concrete C30/37"
  *solidsection, elset=ASSEMBLY_BLOCK-2-LIN-1-8-LIN-2-1-LIN--LIN-4-1-2__PICKEDSET2, material="Concrete C30/37"
  *solidsection, elset=ASSEMBLY_BLOCK-2-LIN-1-8-LIN-2-1-LIN--LIN-5-1-2__PICKEDSET2, material="Concrete C30/37"
  *solidsection, elset=ASSEMBLY_BLOCK-2-LIN-1-8-LIN-2-1-LIN--LIN-6-1-2__PICKEDSET2, material="Concrete C30/37"
  *solidsection, elset=ASSEMBLY_BLOCK-2-LIN-1-8-LIN-2-1-LIN--LIN-7-1-2__PICKEDSET2, material="Concrete C30/37"
  *solidsection, elset=ASSEMBLY_BLOCK-2-LIN-1-8-LIN-2-1-LIN--LIN-8-1-2__PICKEDSET2, material="Concrete C30/37"
  *solidsection, elset=ASSEMBLY_BLOCK-2-LIN-1-8-LIN-2-1-LIN--LIN-9-1-2__PICKEDSET2, material="Concrete C30/37"
  *solidsection, elset=ASSEMBLY_BLOCK-2-LIN-1-8-LIN-2-1-LIN-LIN-10-1-2__PICKEDSET2, material="Concrete C30/37"
  *solidsection, elset=ASSEMBLY_BLOCK-2-LIN-1-8-LIN-2-1-LIN-LIN-11-1-2__PICKEDSET2, material="Concrete C30/37"
  *solidsection, elset=ASSEMBLY_BLOCK-2-LIN-1-3-LIN-2-1__PICKEDSET2, material="Concrete C30/37"
  *solidsection, elset=ASSEMBLY_BLOCK-2-LIN-1-3-LIN-3-1__PICKEDSET2, material="Concrete C30/37"
  *solidsection, elset=ASSEMBLY_BLOCK-2-LIN-1-3-LIN-4-1__PICKEDSET2, material="Concrete C30/37"
  *solidsection, elset=ASSEMBLY_BLOCK-2-LIN-1-3-LIN-5-1__PICKEDSET2, material="Concrete C30/37"
  *solidsection, elset=ASSEMBLY_BLOCK-2-LIN-1-3-LIN-6-1__PICKEDSET2, material="Concrete C30/37"
  *solidsection, elset=ASSEMBLY_BLOCK-2-LIN-1-3-LIN-7-1__PICKEDSET2, material="Concrete C30/37"
  *solidsection, elset=ASSEMBLY_BLOCK-2-LIN-1-3-LIN-8-1__PICKEDSET2, material="Concrete C30/37"
  *solidsection, elset=ASSEMBLY_BLOCK-2-LIN-1-3-LIN-9-1__PICKEDSET2, material="Concrete C30/37"
  *solidsection, elset=ASSEMBLY_BLOCK-2-LIN-1-3-LIN-10-1__PICKEDSET2, material="Concrete C30/37"
  *solidsection, elset=ASSEMBLY_BLOCK-2-LIN-1-3-LIN-11-1__PICKEDSET2, material="Concrete C30/37"
  *solidsection, elset=ASSEMBLY_BLOCK-2-LIN-1-8-LIN-2-1-LIN--LIN-2-1-4__PICKEDSET2, material="Concrete C30/37"
  *solidsection, elset=ASSEMBLY_BLOCK-2-LIN-1-8-LIN-2-1-LIN--LIN-3-1-4__PICKEDSET2, material="Concrete C30/37"
  *solidsection, elset=ASSEMBLY_BLOCK-2-LIN-1-8-LIN-2-1-LIN--LIN-4-1-4__PICKEDSET2, material="Concrete C30/37"
  *solidsection, elset=ASSEMBLY_BLOCK-2-LIN-1-8-LIN-2-1-LIN--LIN-5-1-4__PICKEDSET2, material="Concrete C30/37"
  *solidsection, elset=ASSEMBLY_BLOCK-2-LIN-1-8-LIN-2-1-LIN--LIN-6-1-4__PICKEDSET2, material="Concrete C30/37"
  *solidsection, elset=ASSEMBLY_BLOCK-2-LIN-1-8-LIN-2-1-LIN--LIN-7-1-4__PICKEDSET2, material="Concrete C30/37"
  *solidsection, elset=ASSEMBLY_BLOCK-2-LIN-1-8-LIN-2-1-LIN--LIN-8-1-4__PICKEDSET2, material="Concrete C30/37"
  *solidsection, elset=ASSEMBLY_BLOCK-2-LIN-1-8-LIN-2-1-LIN--LIN-9-1-4__PICKEDSET2, material="Concrete C30/37"
  *solidsection, elset=ASSEMBLY_BLOCK-2-LIN-1-8-LIN-2-1-LIN-LIN-10-1-4__PICKEDSET2, material="Concrete C30/37"
  *solidsection, elset=ASSEMBLY_BLOCK-2-LIN-1-8-LIN-2-1-LIN-LIN-11-1-4__PICKEDSET2, material="Concrete C30/37"
  *solidsection, elset=ASSEMBLY_BLOCK-2-LIN-1-8-LIN-2-1-LIN-2-1__PICKEDSET2, material="Concrete C30/37"
  *solidsection, elset=ASSEMBLY_BLOCK-2-LIN-1-8-LIN-2-1-LIN-3-1__PICKEDSET2, material="Concrete C30/37"
  *solidsection, elset=ASSEMBLY_BLOCK-2-LIN-1-8-LIN-2-1-LIN-4-1__PICKEDSET2, material="Concrete C30/37"
  *solidsection, elset=ASSEMBLY_BLOCK-2-LIN-1-8-LIN-2-1-LIN-5-1__PICKEDSET2, material="Concrete C30/37"
  *solidsection, elset=ASSEMBLY_BLOCK-2-LIN-1-8-LIN-2-1-LIN-6-1__PICKEDSET2, material="Concrete C30/37"
  *solidsection, elset=ASSEMBLY_BLOCK-2-LIN-1-8-LIN-2-1-LIN-7-1__PICKEDSET2, material="Concrete C30/37"
  *solidsection, elset=ASSEMBLY_BLOCK-2-LIN-1-8-LIN-2-1-LIN-8-1__PICKEDSET2, material="Concrete C30/37"
  *solidsection, elset=ASSEMBLY_BLOCK-2-LIN-1-8-LIN-2-1-LIN-9-1__PICKEDSET2, material="Concrete C30/37"
  *solidsection, elset=ASSEMBLY_BLOCK-2-LIN-1-8-LIN-2-1-LIN-10-1__PICKEDSET2, material="Concrete C30/37"
  *solidsection, elset=ASSEMBLY_BLOCK-2-LIN-1-8-LIN-2-1-LIN-11-1__PICKEDSET2, material="Concrete C30/37"
  *solidsection, elset=ASSEMBLY_BLOCK-2-LIN-1-5-LIN-2-1__PICKEDSET2, material="Concrete C30/37"
  *solidsection, elset=ASSEMBLY_BLOCK-2-LIN-1-5-LIN-3-1__PICKEDSET2, material="Concrete C30/37"
  *solidsection, elset=ASSEMBLY_BLOCK-2-LIN-1-5-LIN-4-1__PICKEDSET2, material="Concrete C30/37"
  *solidsection, elset=ASSEMBLY_BLOCK-2-LIN-1-5-LIN-5-1__PICKEDSET2, material="Concrete C30/37"
  *solidsection, elset=ASSEMBLY_BLOCK-2-LIN-1-5-LIN-6-1__PICKEDSET2, material="Concrete C30/37"
  *solidsection, elset=ASSEMBLY_BLOCK-2-LIN-1-5-LIN-7-1__PICKEDSET2, material="Concrete C30/37"
  *solidsection, elset=ASSEMBLY_BLOCK-2-LIN-1-5-LIN-8-1__PICKEDSET2, material="Concrete C30/37"
  *solidsection, elset=ASSEMBLY_BLOCK-2-LIN-1-5-LIN-9-1__PICKEDSET2, material="Concrete C30/37"
  *solidsection, elset=ASSEMBLY_BLOCK-2-LIN-1-5-LIN-10-1__PICKEDSET2, material="Concrete C30/37"
  *solidsection, elset=ASSEMBLY_BLOCK-2-LIN-1-5-LIN-11-1__PICKEDSET2, material="Concrete C30/37"
  *solidsection, elset=ASSEMBLY_BLOCK-2-LIN-1-8-LIN-2-1-LIN--LIN-2-1-6__PICKEDSET2, material="Concrete C30/37"
  *solidsection, elset=ASSEMBLY_BLOCK-2-LIN-1-8-LIN-2-1-LIN--LIN-3-1-6__PICKEDSET2, material="Concrete C30/37"
  *solidsection, elset=ASSEMBLY_BLOCK-2-LIN-1-8-LIN-2-1-LIN--LIN-4-1-6__PICKEDSET2, material="Concrete C30/37"
  *solidsection, elset=ASSEMBLY_BLOCK-2-LIN-1-8-LIN-2-1-LIN--LIN-5-1-6__PICKEDSET2, material="Concrete C30/37"
  *solidsection, elset=ASSEMBLY_BLOCK-2-LIN-1-8-LIN-2-1-LIN--LIN-6-1-6__PICKEDSET2, material="Concrete C30/37"
  *solidsection, elset=ASSEMBLY_BLOCK-2-LIN-1-8-LIN-2-1-LIN--LIN-7-1-6__PICKEDSET2, material="Concrete C30/37"
  *solidsection, elset=ASSEMBLY_BLOCK-2-LIN-1-8-LIN-2-1-LIN--LIN-8-1-6__PICKEDSET2, material="Concrete C30/37"
  *solidsection, elset=ASSEMBLY_BLOCK-2-LIN-1-8-LIN-2-1-LIN--LIN-9-1-6__PICKEDSET2, material="Concrete C30/37"
  *solidsection, elset=ASSEMBLY_BLOCK-2-LIN-1-8-LIN-2-1-LIN-LIN-10-1-6__PICKEDSET2, material="Concrete C30/37"
  *solidsection, elset=ASSEMBLY_BLOCK-2-LIN-1-8-LIN-2-1-LIN-LIN-11-1-6__PICKEDSET2, material="Concrete C30/37"
  *solidsection, elset=ASSEMBLY_BLOCK-2-LIN-1-7-LIN-2-1__PICKEDSET2, material="Concrete C30/37"
  *solidsection, elset=ASSEMBLY_BLOCK-2-LIN-1-7-LIN-3-1__PICKEDSET2, material="Concrete C30/37"
  *solidsection, elset=ASSEMBLY_BLOCK-2-LIN-1-7-LIN-4-1__PICKEDSET2, material="Concrete C30/37"
  *solidsection, elset=ASSEMBLY_BLOCK-2-LIN-1-7-LIN-5-1__PICKEDSET2, material="Concrete C30/37"
  *solidsection, elset=ASSEMBLY_BLOCK-2-LIN-1-7-LIN-6-1__PICKEDSET2, material="Concrete C30/37"
  *solidsection, elset=ASSEMBLY_BLOCK-2-LIN-1-7-LIN-7-1__PICKEDSET2, material="Concrete C30/37"
  *solidsection, elset=ASSEMBLY_BLOCK-2-LIN-1-7-LIN-8-1__PICKEDSET2, material="Concrete C30/37"
  *solidsection, elset=ASSEMBLY_BLOCK-2-LIN-1-7-LIN-9-1__PICKEDSET2, material="Concrete C30/37"
  *solidsection, elset=ASSEMBLY_BLOCK-2-LIN-1-7-LIN-10-1__PICKEDSET2, material="Concrete C30/37"
  *solidsection, elset=ASSEMBLY_BLOCK-2-LIN-1-7-LIN-11-1__PICKEDSET2, material="Concrete C30/37"
  *rigidbody, refnode=ASSEMBLY__PICKEDSET482, analyticalsurface=ASSEMBLY_DIKERIGID-1_SURF-2
  *rigidbody, refnode=ASSEMBLY__PICKEDSET483, analyticalsurface=ASSEMBLY_WALL-1_SURF-WALL
  *rigidbody, refnode=ASSEMBLY__PICKEDSET484, analyticalsurface=ASSEMBLY_WALL-1-LIN-1-2_SURF-WALL
  *friction
  *friction
  *elementoutput, directions=YES
  *output, field
  *output, history, variable=PRESELECT
  *Step, name=Loading, nlgeom=YES
  *Step, name=Loading, nlgeom=YES
  Gravity                                                                         
  *dynamic, explicit
  *boundary
  *dload, amplitude=AMP-1
  *output, field
  *nodeoutput
  *elementoutput, directions=YES
  *contactoutput
  *output, history, variable=PRESELECT
  *endstep

 ***WARNING: OUTPUT REQUEST EVF IS NOT AVAILABLE FOR ELEMENT TYPE C3D8R

 ***WARNING: OUTPUT REQUEST PEEQVAVG IS NOT AVAILABLE FOR ELEMENT TYPE C3D8R

 ***WARNING: OUTPUT REQUEST PEVAVG IS NOT AVAILABLE FOR ELEMENT TYPE C3D8R

 ***WARNING: OUTPUT REQUEST SVAVG IS NOT AVAILABLE FOR ELEMENT TYPE C3D8R

 ***WARNING: OUTPUT REQUEST EVF IS NOT AVAILABLE FOR ELEMENT TYPE C3D8R

 ***WARNING: OUTPUT REQUEST PEEQVAVG IS NOT AVAILABLE FOR ELEMENT TYPE C3D8R

 ***WARNING: OUTPUT REQUEST PEVAVG IS NOT AVAILABLE FOR ELEMENT TYPE C3D8R

 ***WARNING: OUTPUT REQUEST SVAVG IS NOT AVAILABLE FOR ELEMENT TYPE C3D8R

 ***WARNING: OUTPUT REQUEST EVF IS NOT AVAILABLE FOR ELEMENT TYPE C3D8R

 ***WARNING: OUTPUT REQUEST PEEQVAVG IS NOT AVAILABLE FOR ELEMENT TYPE C3D8R

 ***WARNING: OUTPUT REQUEST PEVAVG IS NOT AVAILABLE FOR ELEMENT TYPE C3D8R

 ***WARNING: OUTPUT REQUEST SVAVG IS NOT AVAILABLE FOR ELEMENT TYPE C3D8R

 ***WARNING: OUTPUT REQUEST EVF IS NOT AVAILABLE FOR ELEMENT TYPE C3D8R

 ***WARNING: OUTPUT REQUEST PEEQVAVG IS NOT AVAILABLE FOR ELEMENT TYPE C3D8R

 ***WARNING: OUTPUT REQUEST PEVAVG IS NOT AVAILABLE FOR ELEMENT TYPE C3D8R

 ***WARNING: OUTPUT REQUEST SVAVG IS NOT AVAILABLE FOR ELEMENT TYPE C3D8R

 ***WARNING: OUTPUT REQUEST EVF IS NOT AVAILABLE FOR ELEMENT TYPE C3D8R

 ***WARNING: OUTPUT REQUEST PEEQVAVG IS NOT AVAILABLE FOR ELEMENT TYPE C3D8R

 ***WARNING: OUTPUT REQUEST PEVAVG IS NOT AVAILABLE FOR ELEMENT TYPE C3D8R

 ***WARNING: OUTPUT REQUEST SVAVG IS NOT AVAILABLE FOR ELEMENT TYPE C3D8R

 ***WARNING: OUTPUT REQUEST EVF IS NOT AVAILABLE FOR ELEMENT TYPE C3D8R

 ***WARNING: OUTPUT REQUEST PEEQVAVG IS NOT AVAILABLE FOR ELEMENT TYPE C3D8R

 ***WARNING: OUTPUT REQUEST PEVAVG IS NOT AVAILABLE FOR ELEMENT TYPE C3D8R

 ***WARNING: OUTPUT REQUEST SVAVG IS NOT AVAILABLE FOR ELEMENT TYPE C3D8R

 ***WARNING: OUTPUT REQUEST EVF IS NOT AVAILABLE FOR ELEMENT TYPE C3D8R

 ***WARNING: OUTPUT REQUEST PEEQVAVG IS NOT AVAILABLE FOR ELEMENT TYPE C3D8R

 ***WARNING: OUTPUT REQUEST PEVAVG IS NOT AVAILABLE FOR ELEMENT TYPE C3D8R

 ***WARNING: OUTPUT REQUEST SVAVG IS NOT AVAILABLE FOR ELEMENT TYPE C3D8R

 ***WARNING: OUTPUT REQUEST EVF IS NOT AVAILABLE FOR ELEMENT TYPE C3D8R

 ***WARNING: OUTPUT REQUEST PEEQVAVG IS NOT AVAILABLE FOR ELEMENT TYPE C3D8R

 ***WARNING: OUTPUT REQUEST PEVAVG IS NOT AVAILABLE FOR ELEMENT TYPE C3D8R

 ***WARNING: OUTPUT REQUEST SVAVG IS NOT AVAILABLE FOR ELEMENT TYPE C3D8R

 ***WARNING: OUTPUT REQUEST EVF IS NOT AVAILABLE FOR ELEMENT TYPE C3D8R

 ***WARNING: OUTPUT REQUEST PEEQVAVG IS NOT AVAILABLE FOR ELEMENT TYPE C3D8R

 ***WARNING: OUTPUT REQUEST PEVAVG IS NOT AVAILABLE FOR ELEMENT TYPE C3D8R

 ***WARNING: OUTPUT REQUEST SVAVG IS NOT AVAILABLE FOR ELEMENT TYPE C3D8R

 ***WARNING: OUTPUT REQUEST EVF IS NOT AVAILABLE FOR ELEMENT TYPE C3D8R

 ***WARNING: OUTPUT REQUEST PEEQVAVG IS NOT AVAILABLE FOR ELEMENT TYPE C3D8R

 ***WARNING: OUTPUT REQUEST PEVAVG IS NOT AVAILABLE FOR ELEMENT TYPE C3D8R

 ***WARNING: OUTPUT REQUEST SVAVG IS NOT AVAILABLE FOR ELEMENT TYPE C3D8R

 ***WARNING: OUTPUT REQUEST EVF IS NOT AVAILABLE FOR ELEMENT TYPE C3D8R

 ***WARNING: OUTPUT REQUEST PEEQVAVG IS NOT AVAILABLE FOR ELEMENT TYPE C3D8R

 ***WARNING: OUTPUT REQUEST PEVAVG IS NOT AVAILABLE FOR ELEMENT TYPE C3D8R

 ***WARNING: OUTPUT REQUEST SVAVG IS NOT AVAILABLE FOR ELEMENT TYPE C3D8R

 ***WARNING: OUTPUT REQUEST EVF IS NOT AVAILABLE FOR ELEMENT TYPE C3D8R

 ***WARNING: OUTPUT REQUEST PEEQVAVG IS NOT AVAILABLE FOR ELEMENT TYPE C3D8R

 ***WARNING: OUTPUT REQUEST PEVAVG IS NOT AVAILABLE FOR ELEMENT TYPE C3D8R

 ***WARNING: OUTPUT REQUEST SVAVG IS NOT AVAILABLE FOR ELEMENT TYPE C3D8R

 ***WARNING: OUTPUT REQUEST EVF IS NOT AVAILABLE FOR ELEMENT TYPE C3D8R

 ***WARNING: OUTPUT REQUEST PEEQVAVG IS NOT AVAILABLE FOR ELEMENT TYPE C3D8R

 ***WARNING: OUTPUT REQUEST PEVAVG IS NOT AVAILABLE FOR ELEMENT TYPE C3D8R

 ***WARNING: OUTPUT REQUEST SVAVG IS NOT AVAILABLE FOR ELEMENT TYPE C3D8R

 ***WARNING: OUTPUT REQUEST EVF IS NOT AVAILABLE FOR ELEMENT TYPE C3D8R

 ***WARNING: OUTPUT REQUEST PEEQVAVG IS NOT AVAILABLE FOR ELEMENT TYPE C3D8R

 ***WARNING: OUTPUT REQUEST PEVAVG IS NOT AVAILABLE FOR ELEMENT TYPE C3D8R

 ***WARNING: OUTPUT REQUEST SVAVG IS NOT AVAILABLE FOR ELEMENT TYPE C3D8R

 ***WARNING: OUTPUT REQUEST EVF IS NOT AVAILABLE FOR ELEMENT TYPE C3D8R

 ***WARNING: OUTPUT REQUEST PEEQVAVG IS NOT AVAILABLE FOR ELEMENT TYPE C3D8R

 ***WARNING: OUTPUT REQUEST PEVAVG IS NOT AVAILABLE FOR ELEMENT TYPE C3D8R

 ***WARNING: OUTPUT REQUEST SVAVG IS NOT AVAILABLE FOR ELEMENT TYPE C3D8R

 ***WARNING: OUTPUT REQUEST EVF IS NOT AVAILABLE FOR ELEMENT TYPE C3D8R

 ***WARNING: OUTPUT REQUEST PEEQVAVG IS NOT AVAILABLE FOR ELEMENT TYPE C3D8R

 ***WARNING: OUTPUT REQUEST PEVAVG IS NOT AVAILABLE FOR ELEMENT TYPE C3D8R

 ***WARNING: OUTPUT REQUEST SVAVG IS NOT AVAILABLE FOR ELEMENT TYPE C3D8R

 ***WARNING: OUTPUT REQUEST EVF IS NOT AVAILABLE FOR ELEMENT TYPE C3D8R

 ***WARNING: OUTPUT REQUEST PEEQVAVG IS NOT AVAILABLE FOR ELEMENT TYPE C3D8R

 ***WARNING: OUTPUT REQUEST PEVAVG IS NOT AVAILABLE FOR ELEMENT TYPE C3D8R

 ***WARNING: OUTPUT REQUEST SVAVG IS NOT AVAILABLE FOR ELEMENT TYPE C3D8R

 ***WARNING: OUTPUT REQUEST EVF IS NOT AVAILABLE FOR ELEMENT TYPE C3D8R

 ***WARNING: OUTPUT REQUEST PEEQVAVG IS NOT AVAILABLE FOR ELEMENT TYPE C3D8R

 ***WARNING: OUTPUT REQUEST PEVAVG IS NOT AVAILABLE FOR ELEMENT TYPE C3D8R

 ***WARNING: OUTPUT REQUEST SVAVG IS NOT AVAILABLE FOR ELEMENT TYPE C3D8R

 ***WARNING: OUTPUT REQUEST EVF IS NOT AVAILABLE FOR ELEMENT TYPE C3D8R

 ***WARNING: OUTPUT REQUEST PEEQVAVG IS NOT AVAILABLE FOR ELEMENT TYPE C3D8R

 ***WARNING: OUTPUT REQUEST PEVAVG IS NOT AVAILABLE FOR ELEMENT TYPE C3D8R

 ***WARNING: OUTPUT REQUEST SVAVG IS NOT AVAILABLE FOR ELEMENT TYPE C3D8R

 ***WARNING: OUTPUT REQUEST EVF IS NOT AVAILABLE FOR ELEMENT TYPE C3D8R

 ***WARNING: OUTPUT REQUEST PEEQVAVG IS NOT AVAILABLE FOR ELEMENT TYPE C3D8R

 ***WARNING: OUTPUT REQUEST PEVAVG IS NOT AVAILABLE FOR ELEMENT TYPE C3D8R

 ***WARNING: OUTPUT REQUEST SVAVG IS NOT AVAILABLE FOR ELEMENT TYPE C3D8R

 ***WARNING: OUTPUT REQUEST EVF IS NOT AVAILABLE FOR ELEMENT TYPE C3D8R

 ***WARNING: OUTPUT REQUEST PEEQVAVG IS NOT AVAILABLE FOR ELEMENT TYPE C3D8R

 ***WARNING: OUTPUT REQUEST PEVAVG IS NOT AVAILABLE FOR ELEMENT TYPE C3D8R

 ***WARNING: OUTPUT REQUEST SVAVG IS NOT AVAILABLE FOR ELEMENT TYPE C3D8R

 ***WARNING: OUTPUT REQUEST EVF IS NOT AVAILABLE FOR ELEMENT TYPE C3D8R

 ***WARNING: OUTPUT REQUEST PEEQVAVG IS NOT AVAILABLE FOR ELEMENT TYPE C3D8R

 ***WARNING: OUTPUT REQUEST PEVAVG IS NOT AVAILABLE FOR ELEMENT TYPE C3D8R

 ***WARNING: OUTPUT REQUEST SVAVG IS NOT AVAILABLE FOR ELEMENT TYPE C3D8R

 ***WARNING: OUTPUT REQUEST EVF IS NOT AVAILABLE FOR ELEMENT TYPE C3D8R

 ***WARNING: OUTPUT REQUEST PEEQVAVG IS NOT AVAILABLE FOR ELEMENT TYPE C3D8R

 ***WARNING: OUTPUT REQUEST PEVAVG IS NOT AVAILABLE FOR ELEMENT TYPE C3D8R

 ***WARNING: OUTPUT REQUEST SVAVG IS NOT AVAILABLE FOR ELEMENT TYPE C3D8R

 ***WARNING: OUTPUT REQUEST EVF IS NOT AVAILABLE FOR ELEMENT TYPE C3D8R

 ***WARNING: OUTPUT REQUEST PEEQVAVG IS NOT AVAILABLE FOR ELEMENT TYPE C3D8R

 ***WARNING: OUTPUT REQUEST PEVAVG IS NOT AVAILABLE FOR ELEMENT TYPE C3D8R

 ***WARNING: OUTPUT REQUEST SVAVG IS NOT AVAILABLE FOR ELEMENT TYPE C3D8R

 ***WARNING: OUTPUT REQUEST EVF IS NOT AVAILABLE FOR ELEMENT TYPE C3D8R

 ***WARNING: OUTPUT REQUEST PEEQVAVG IS NOT AVAILABLE FOR ELEMENT TYPE C3D8R

 ***WARNING: OUTPUT REQUEST PEVAVG IS NOT AVAILABLE FOR ELEMENT TYPE C3D8R

 ***WARNING: OUTPUT REQUEST SVAVG IS NOT AVAILABLE FOR ELEMENT TYPE C3D8R

 ***WARNING: MAXIMUM NUMBER OF OUTPUT RELATED WARNINGS HAS BEEN ISSUED. 
             SUBSEQUENT WARNINGS WILL BE SUPPRESSED. SET ABA_OUTPUT_DIAGNOSTICS 
             TO unlimited TO OVERRIDE.
  *surfaceinteraction, name=BLOCK-FILTER
  *friction
  *surfacebehavior, pressure-overclosure=HARD
  *surfaceinteraction, name=INTPROP-1
  *friction
  *surfacebehavior, pressure-overclosure=HARD
  *contact, op=NEW

 ***WARNING: OP=NEW on *CONTACT is ignored when the general contact definition 
             is specified as model data.
  *contactinclusions, allexterior
  *contactpropertyassignment
  *Step, name=Loading, nlgeom=YES
  *dynamic, explicit
  *boundary

 ***WARNING: THE OPTION *BOUNDARY,TYPE=DISPLACEMENT HAS BEEN USED; CHECK STATUS 
             FILE BETWEEN STEPS FOR WARNINGS ON ANY JUMPS PRESCRIBED ACROSS THE 
             STEPS IN DISPLACEMENT VALUES OF TRANSLATIONAL DOF. FOR ROTATIONAL 
             DOF MAKE SURE THAT THERE ARE NO SUCH JUMPS. ALL JUMPS IN 
             DISPLACEMENTS ACROSS STEPS ARE IGNORED
  *endstep



                            P R O B L E M   S I Z E


          NUMBER OF ELEMENTS IS                                 19558
          NUMBER OF NODES IS                                    38547
          NUMBER OF NODES DEFINED BY THE USER                   38547
          TOTAL NUMBER OF VARIABLES IN THE MODEL               115650
          (DEGREES OF FREEDOM PLUS MAX NO. OF ANY LAGRANGE MULTIPLIER
           VARIABLES. INCLUDE *PRINT,SOLVE=YES TO GET THE ACTUAL NUMBER.)



                              END OF USER INPUT PROCESSING



     JOB TIME SUMMARY
       USER TIME (SEC)      =      1.5    
       SYSTEM TIME (SEC)    =     0.10    
       TOTAL CPU TIME (SEC) =      1.6    
       WALLCLOCK TIME (SEC) =            2
